                                   MODFLOW 6
                U.S. GEOLOGICAL SURVEY MODULAR HYDROLOGIC MODEL
                          GROUNDWATER FLOW MODEL (GWF)
                        VERSION 6.4.1 Release 12/09/2022

   MODFLOW 6 compiled Dec 09 2022 18:18:37 with Intel(R) Fortran Intel(R) 64
   Compiler Classic for applications running on Intel(R) 64, Version 2021.7.0
                             Build 20220726_000000

This software has been approved for release by the U.S. Geological 
Survey (USGS). Although the software has been subjected to rigorous 
review, the USGS reserves the right to update the software as needed 
pursuant to further analysis and review. No warranty, expressed or 
implied, is made by the USGS or the U.S. Government as to the 
functionality of the software and related material nor shall the 
fact of release constitute any such warranty. Furthermore, the 
software is released on condition that neither the USGS nor the U.S. 
Government shall be held liable for any damages resulting from its 
authorized or unauthorized use. Also refer to the USGS Water 
Resources Software User Rights Notice for complete use, copyright, 
and distribution information.


As a work of the United States Government, this USGS product is 
in the public domain within the United States. You can copy, 
modify, distribute, and perform the work, even for commercial 
purposes, all without asking permission. Additionally, USGS 
waives copyright and related rights in the work worldwide 
through CC0 1.0 Universal Public Domain Dedication 
(https://creativecommons.org/publicdomain/zero/1.0/).

The following GNU Lesser General Public License (LGPL) libraries
are used in this USGS product:

    SPARSKIT version 2.0
      ilut, luson, and qsplit 
      (https://www-users.cse.umn.edu/~saad/software/SPARSKIT/)

    RCM - Reverse Cuthill McKee Ordering
      (https://people.math.sc.edu/Burkardt/f_src/rcm/rcm.html)

    BLAS - Basic Linear Algebra Subprograms Level 1
      (https://people.math.sc.edu/Burkardt/f_src/blas1_d/blas1_d.html)

    SPARSEKIT - Sparse Matrix Utility Package
      amux, dperm, dvperm, rperm, and cperm
      (https://people.sc.fsu.edu/~jburkardt/f77_src/sparsekit/sparsekit.html)

The following BSD-3 License libraries are used in this USGS product:

    Modern Fortran DAG Library
      Copyright (c) 2018, Jacob Williams
      All rights reserved.
      (https://github.com/jacobwilliams/daglib)

MODFLOW 6 compiler options: /Isrc\libmf6core.a.p /Isrc /I..\src
/Isrc\libmf6_external.a.p /MTd /nologo /warn:general /warn:truncated_source
/stand:f08 /Zi /traceback /O2 /fpe:0 /heap-arrays:0 /traceback /fpp
/Qdiag-disable:7416 /Qdiag-disable:7025 /Qdiag-disable:5268
/Fdsrc\libmf6core.a.p\Utilities_compilerversion.F90.pdb
/module:src\libmf6core.a.p
/Fosrc/libmf6core.a.p/Utilities_compilerversion.F90.obj /c

System command used to initiate simulation:
"C:\Users\ksil8584\OneDrive - The University of Sydney (Staff)\Documents\Modflow\mf6.4.1\bin\mf6.exe"

MODFLOW was compiled using uniform precision.

Real Variables
  KIND: 8
  TINY (smallest non-zero value):    2.225074-308
  HUGE (largest value):    1.797693+308
  PRECISION: 15
  SIZE IN BITS: 64

Integer Variables
  KIND: 4
  HUGE (largest value): 2147483647
  SIZE IN BITS: 32

Long Integer Variables
  KIND: 8
  HUGE (largest value): 9223372036854775807
  SIZE IN BITS: 64

Logical Variables
  KIND: 4
  SIZE IN BITS: 32
 

 OPENED FloPy_ModelS_T1b.dis
 FILE TYPE:DIS6                   UNIT 1005   STATUS:OLD                 
 FORMAT:FORMATTED              ACCESS:SEQUENTIAL          
 ACTION:READ                


 OPENED FloPy_ModelS_T1b.ic
 FILE TYPE:IC6                    UNIT 1006   STATUS:OLD                 
 FORMAT:FORMATTED              ACCESS:SEQUENTIAL          
 ACTION:READ                


 OPENED FloPy_ModelS_T1b.npf
 FILE TYPE:NPF6                   UNIT 1007   STATUS:OLD                 
 FORMAT:FORMATTED              ACCESS:SEQUENTIAL          
 ACTION:READ                


 OPENED FloPy_ModelS_T1b.sto
 FILE TYPE:STO6                   UNIT 1008   STATUS:OLD                 
 FORMAT:FORMATTED              ACCESS:SEQUENTIAL          
 ACTION:READ                


 OPENED FloPy_ModelS_T1b.chd
 FILE TYPE:CHD6                   UNIT 1009   STATUS:OLD                 
 FORMAT:FORMATTED              ACCESS:SEQUENTIAL          
 ACTION:READ                


 OPENED FloPy_ModelS_T1b.oc
 FILE TYPE:OC6                    UNIT 1010   STATUS:OLD                 
 FORMAT:FORMATTED              ACCESS:SEQUENTIAL          
 ACTION:READ                


 OPENED FloPy_ModelS_T1b.wel
 FILE TYPE:WEL6                   UNIT 1011   STATUS:OLD                 
 FORMAT:FORMATTED              ACCESS:SEQUENTIAL          
 ACTION:READ                


 OPENED FloPy_ModelS_T1b.rcha
 FILE TYPE:RCH6                   UNIT 1012   STATUS:OLD                 
 FORMAT:FORMATTED              ACCESS:SEQUENTIAL          
 ACTION:READ                

 NAMEFILE OPTIONS:
    FLOWS WILL BE SAVED TO BUDGET FILE SPECIFIED IN OUTPUT CONTROL
    NEWTON-RAPHSON method enabled for the model.
    NEWTON-RAPHSON UNDER-RELAXATION based on the bottom elevation of the model will be applied to the model.

 DIS -- STRUCTURED GRID DISCRETIZATION PACKAGE, VERSION 2 : 3/27/2014 - INPUT READ FROM UNIT 1005

 Loading input for FLOPY_MODELS_T1B/DIS
 # File generated by Flopy version 3.3.6 on 06/27/2023 at 10:56:28.
   NLAY = 10
   NROW = 101
   NCOL = 101
   DELR = 4.000000000000000
   DELC = 4.000000000000000
   TOP = .000000000000000
   BOTM = variable 3D double precision array ranging from -50.00000000000000 to -5.000000000000000
 Loading input complete...


 NPF -- NODE PROPERTY FLOW PACKAGE, VERSION 1, 3/30/2015 INPUT READ FROM UNIT 1007

 Loading input for FLOPY_MODELS_T1B/NPF
 # File generated by Flopy version 3.3.6 on 06/27/2023 at 10:56:29.
   ICELLTYPE = 1
   K = 1.000000000000000
 Loading input complete...

 Setting Discretization Options
 End Setting Discretization Options

 Setting Discretization Dimensions
    NLAY = 10
    NROW = 101
    NCOL = 101
 End Setting Discretization Dimensions

 Setting Discretization Griddata
    DELR set from input file
    DELC set from input file
    TOP set from input file
    BOTM set from input file
 End Setting Discretization Griddata

 Setting NPF Options
 End Setting NPF Options

 Setting NPF Griddata
    ICELLTYPE set from input file
    K set from input file
    K33 not provided.  Setting K33 = K.
    K22 not provided.  Setting K22 = K.
 End Setting NPF Griddata


 WEL   -- WEL PACKAGE, VERSION 8, 2/22/2014 INPUT READ FROM UNIT 1011
 # File generated by Flopy version 3.3.6 on 06/27/2023 at 10:56:29.

 PROCESSING WEL OPTIONS
 END OF WEL OPTIONS

 PROCESSING WEL DIMENSIONS
    MAXBOUND =       1
 END OF WEL DIMENSIONS

 RCH   -- RCH PACKAGE, VERSION 8, 2/22/2014 INPUT READ FROM UNIT 1012
 # File generated by Flopy version 3.3.6 on 06/27/2023 at 10:56:29.

 PROCESSING RCH OPTIONS
    RECHARGE INPUT WILL BE READ AS ARRAY(S).
 END OF RCHA OPTIONS

 CHD   -- CHD PACKAGE, VERSION 8, 2/22/2014 INPUT READ FROM UNIT 1009
 # File generated by Flopy version 3.3.6 on 06/27/2023 at 10:56:29.

 PROCESSING CHD OPTIONS
 END OF CHD OPTIONS

 PROCESSING CHD DIMENSIONS
    MAXBOUND =     400
 END OF CHD DIMENSIONS

 IC -- INITIAL CONDITIONS PACKAGE, VERSION 8, 3/28/2015 INPUT READ FROM UNIT 1006
 # File generated by Flopy version 3.3.6 on 06/27/2023 at 10:56:28.
 PROCESSING GRIDDATA
 END PROCESSING GRIDDATA

 STO -- STORAGE PACKAGE, VERSION 1, 5/19/2014 INPUT READ FROM UNIT 1008


 # File generated by Flopy version 3.3.6 on 06/27/2023 at 10:56:29.
 PROCESSING STORAGE OPTIONS
 END OF STORAGE OPTIONS
 PROCESSING GRIDDATA

                 ICONVERT = 1

         SPECIFIC STORAGE =  0.1000000E-04

           SPECIFIC YIELD =  0.1500000    
 END PROCESSING GRIDDATA
    BINARY GRID INFORMATION WILL BE WRITTEN TO:
      UNIT NUMBER: 1014
      FILE NAME: C:\Users\ksil8584\OneDrive - The University of Sydney (Staff)\Documents\Modflow\FloPy models\FP_ModelS_1b\output_q_500-1500_r_005-01\FloPy_ModelS_T1b.dis.grb

 OPENED C:\Users\ksil8584\OneDrive - The University of Sydney (Staff)\Documents\Modflow\FloPy models\FP_ModelS_1b\output_q_500-1500_r_005-01\FloPy_ModelS_T1b.dis.grb
 FILE TYPE:DATA(BINARY)   UNIT 1014   STATUS:REPLACE             
 FORMAT:UNFORMATTED            ACCESS:STREAM              
 ACTION:READWRITE           

      THE LAST TIME STEP WILL BE PRINTED
      THE LAST TIME STEP WILL BE PRINTED
 # File generated by Flopy version 3.3.6 on 06/27/2023 at 10:56:29.

 PROCESSING OC OPTIONS

    BUDGET INFORMATION WILL BE WRITTEN TO:
      UNIT NUMBER: 1015
      FILE NAME: FloPy_ModelS_T1b.cbb

 OPENED FloPy_ModelS_T1b.cbb
 FILE TYPE:DATA(BINARY)   UNIT 1015   STATUS:REPLACE             
 FORMAT:UNFORMATTED            ACCESS:STREAM              
 ACTION:READWRITE           

    HEAD INFORMATION WILL BE WRITTEN TO:
      UNIT NUMBER: 1016
      FILE NAME: FloPy_ModelS_T1b.hds

 OPENED FloPy_ModelS_T1b.hds
 FILE TYPE:DATA(BINARY)   UNIT 1016   STATUS:REPLACE             
 FORMAT:UNFORMATTED            ACCESS:STREAM              
 ACTION:READWRITE           

 END OF OC OPTIONS

start timestep kper="1" kstp="1" mode="normal"


 BEGIN READING OUTPUT CONTROL FOR STRESS PERIOD 1
      ALL TIME STEPS WILL BE SAVED
      ALL TIME STEPS WILL BE SAVED
      THE LAST TIME STEP WILL BE PRINTED

 END READING OUTPUT CONTROL FOR STRESS PERIOD 1


 STRESS PERIOD 1 IS TRANSIENT


                 RECHARGE =  0.9754140E-02
 UBDSV1 SAVING           STO-SS ON UNIT   1015 AT TIME STEP      1, STRESS PERIOD      1
 UBDSV1 SAVING           STO-SY ON UNIT   1015 AT TIME STEP      1, STRESS PERIOD      1
 UBDSV1 SAVING     FLOW-JA-FACE ON UNIT   1015 AT TIME STEP      1, STRESS PERIOD      1
 UBDSV06 SAVING              WEL IN MODEL FLOPY_MODELS_T1B PACKAGE FLOPY_MODELS_T1BCONNECTED TO MODEL FLOPY_MODELS_T1B PACKAGE WEL_0            ON UNIT   1015 AT TIME STEP      1, STRESS PERIOD      1
 UBDSV06 SAVING             RCHA IN MODEL FLOPY_MODELS_T1B PACKAGE FLOPY_MODELS_T1BCONNECTED TO MODEL FLOPY_MODELS_T1B PACKAGE RCH              ON UNIT   1015 AT TIME STEP      1, STRESS PERIOD      1
 UBDSV06 SAVING              CHD IN MODEL FLOPY_MODELS_T1B PACKAGE FLOPY_MODELS_T1BCONNECTED TO MODEL FLOPY_MODELS_T1B PACKAGE CHD_0            ON UNIT   1015 AT TIME STEP      1, STRESS PERIOD      1
1
  HEAD IN LAYER   1 AT END OF TIME STEP   1 IN STRESS PERIOD    1
  ---------------------------------------------------------------------------

            1           2           3           4           5           6           7           8           9          10
           11          12          13          14          15          16          17          18          19          20
           21          22          23          24          25          26          27          28          29          30
           31          32          33          34          35          36          37          38          39          40
           41          42          43          44          45          46          47          48          49          50
           51          52          53          54          55          56          57          58          59          60
           61          62          63          64          65          66          67          68          69          70
           71          72          73          74          75          76          77          78          79          80
           81          82          83          84          85          86          87          88          89          90
           91          92          93          94          95          96          97          98          99         100
          101
 ........................................................................................................................
   1    100.0       100.0       100.0       100.0       100.0       100.0       100.0       100.0       100.0       100.0    
        100.0       100.0       100.0       100.0       100.0       100.0       100.0       100.0       100.0       100.0    
        100.0       100.0       100.0       100.0       100.0       100.0       100.0       100.0       100.0       100.0    
        100.0       100.0       100.0       100.0       100.0       100.0       100.0       100.0       100.0       100.0    
        100.0       100.0       100.0       100.0       100.0       100.0       100.0       100.0       100.0       100.0    
        100.0       100.0       100.0       100.0       100.0       100.0       100.0       100.0       100.0       100.0    
        100.0       100.0       100.0       100.0       100.0       100.0       100.0       100.0       100.0       100.0    
        100.0       100.0       100.0       100.0       100.0       100.0       100.0       100.0       100.0       100.0    
        100.0       100.0       100.0       100.0       100.0       100.0       100.0       100.0       100.0       100.0    
        100.0       100.0       100.0       100.0       100.0       100.0       100.0       100.0       100.0       100.0    
        100.0    
   2    100.0       99.84       99.76       99.71       99.66       99.63       99.60       99.57       99.54       99.52    
        99.49       99.47       99.44       99.42       99.40       99.38       99.36       99.34       99.33       99.31    
        99.30       99.29       99.28       99.28       99.27       99.28       99.28       99.28       99.29       99.30    
        99.32       99.33       99.35       99.37       99.39       99.42       99.44       99.47       99.49       99.52    
        99.55       99.57       99.60       99.63       99.66       99.68       99.71       99.74       99.76       99.79    
        99.81       99.83       99.86       99.88       99.90       99.92       99.94       99.96       99.98       99.99    
        100.0       100.0       100.0       100.1       100.1       100.1       100.1       100.1       100.1       100.1    
        100.1       100.1       100.2       100.2       100.2       100.2       100.2       100.2       100.2       100.2    
        100.2       100.2       100.2       100.2       100.2       100.2       100.2       100.2       100.2       100.2    
        100.2       100.2       100.2       100.2       100.2       100.2       100.2       100.1       100.1       100.1    
        100.0    
   3    100.0       99.76       99.62       99.52       99.45       99.39       99.34       99.29       99.25       99.20    
        99.16       99.12       99.08       99.04       99.00       98.97       98.94       98.91       98.88       98.85    
        98.83       98.82       98.80       98.80       98.79       98.79       98.80       98.81       98.82       98.84    
        98.86       98.89       98.92       98.96       98.99       99.03       99.07       99.11       99.16       99.20    
        99.25       99.29       99.34       99.38       99.43       99.47       99.52       99.56       99.60       99.64    
        99.68       99.72       99.76       99.80       99.83       99.87       99.90       99.93       99.96       99.99    
        100.0       100.0       100.1       100.1       100.1       100.1       100.2       100.2       100.2       100.2    
        100.2       100.2       100.2       100.3       100.3       100.3       100.3       100.3       100.3       100.3    
        100.3       100.3       100.3       100.3       100.3       100.3       100.3       100.3       100.3       100.3    
        100.3       100.3       100.3       100.3       100.3       100.3       100.2       100.2       100.2       100.1    
        100.0    
   4    100.0       99.71       99.52       99.40       99.30       99.22       99.15       99.09       99.03       98.97    
        98.91       98.86       98.81       98.76       98.71       98.66       98.62       98.58       98.54       98.51    
        98.48       98.46       98.44       98.43       98.43       98.43       98.44       98.45       98.47       98.49    
        98.52       98.56       98.60       98.64       98.69       98.74       98.79       98.85       98.91       98.96    
        99.02       99.08       99.14       99.20       99.26       99.32       99.37       99.43       99.49       99.54    
        99.59       99.64       99.69       99.74       99.78       99.82       99.87       99.91       99.94       99.98    
        100.0       100.0       100.1       100.1       100.1       100.2       100.2       100.2       100.2       100.3    
        100.3       100.3       100.3       100.3       100.3       100.4       100.4       100.4       100.4       100.4    
        100.4       100.4       100.4       100.4       100.4       100.4       100.4       100.4       100.4       100.4    
        100.4       100.4       100.4       100.4       100.4       100.3       100.3       100.3       100.2       100.1    
        100.0    
   5    100.0       99.66       99.45       99.30       99.19       99.09       99.00       98.92       98.85       98.78    
        98.71       98.65       98.58       98.52       98.46       98.41       98.36       98.31       98.26       98.23    
        98.19       98.17       98.14       98.13       98.12       98.13       98.13       98.15       98.17       98.20    
        98.24       98.28       98.33       98.38       98.44       98.50       98.56       98.63       98.70       98.77    
        98.84       98.91       98.98       99.05       99.12       99.19       99.26       99.32       99.39       99.45    
        99.51       99.57       99.63       99.69       99.74       99.79       99.84       99.89       99.93       99.97    
        100.0       100.1       100.1       100.1       100.2       100.2       100.2       100.2       100.3       100.3    
        100.3       100.3       100.4       100.4       100.4       100.4       100.4       100.4       100.4       100.5    
        100.5       100.5       100.5       100.5       100.5       100.5       100.5       100.5       100.5       100.5    
        100.5       100.5       100.4       100.4       100.4       100.4       100.3       100.3       100.2       100.2    
        100.0    
   6    100.0       99.63       99.39       99.22       99.09       98.98       98.88       98.79       98.70       98.62    
        98.54       98.47       98.39       98.32       98.25       98.19       98.13       98.07       98.02       97.97    
        97.93       97.90       97.88       97.86       97.85       97.85       97.86       97.88       97.91       97.94    
        97.99       98.04       98.09       98.15       98.22       98.29       98.36       98.44       98.52       98.60    
        98.68       98.76       98.84       98.92       99.00       99.08       99.16       99.23       99.31       99.38    
        99.45       99.51       99.58       99.64       99.70       99.76       99.81       99.87       99.92       99.97    
        100.0       100.1       100.1       100.1       100.2       100.2       100.2       100.3       100.3       100.3    
        100.4       100.4       100.4       100.4       100.4       100.5       100.5       100.5       100.5       100.5    
        100.5       100.5       100.5       100.5       100.5       100.5       100.5       100.5       100.5       100.5    
        100.5       100.5       100.5       100.5       100.4       100.4       100.4       100.3       100.3       100.2    
        100.0    
   7    100.0       99.60       99.34       99.15       99.00       98.88       98.77       98.66       98.57       98.48    
        98.39       98.30       98.22       98.14       98.06       97.98       97.92       97.85       97.79       97.74    
        97.69       97.66       97.63       97.61       97.60       97.60       97.61       97.63       97.66       97.70    
        97.75       97.81       97.87       97.94       98.01       98.09       98.18       98.26       98.35       98.44    
        98.53       98.62       98.72       98.81       98.89       98.98       99.07       99.15       99.23       99.31    
        99.39       99.46       99.53       99.60       99.67       99.73       99.79       99.85       99.91       99.96    
        100.0       100.1       100.1       100.1       100.2       100.2       100.3       100.3       100.3       100.4    
        100.4       100.4       100.4       100.5       100.5       100.5       100.5       100.5       100.5       100.6    
        100.6       100.6       100.6       100.6       100.6       100.6       100.6       100.6       100.6       100.6    
        100.6       100.5       100.5       100.5       100.5       100.4       100.4       100.4       100.3       100.2    
        100.0    
   8    100.0       99.57       99.29       99.09       98.92       98.79       98.66       98.55       98.44       98.34    
        98.24       98.15       98.05       97.96       97.88       97.79       97.71       97.64       97.57       97.51    
        97.46       97.42       97.39       97.37       97.35       97.35       97.37       97.39       97.42       97.47    
        97.52       97.59       97.66       97.73       97.82       97.91       98.00       98.10       98.20       98.30    
        98.40       98.50       98.60       98.70       98.79       98.89       98.98       99.07       99.16       99.25    
        99.33       99.41       99.49       99.56       99.64       99.71       99.77       99.83       99.89       99.95    
        100.0       100.1       100.1       100.2       100.2       100.2       100.3       100.3       100.4       100.4    
        100.4       100.4       100.5       100.5       100.5       100.5       100.5       100.6       100.6       100.6    
        100.6       100.6       100.6       100.6       100.6       100.6       100.6       100.6       100.6       100.6    
        100.6       100.6       100.6       100.5       100.5       100.5       100.4       100.4       100.3       100.2    
        100.0    
   9    100.0       99.54       99.25       99.03       98.85       98.70       98.57       98.44       98.33       98.21    
        98.11       98.00       97.90       97.80       97.70       97.61       97.52       97.43       97.36       97.29    
        97.23       97.19       97.15       97.12       97.11       97.11       97.12       97.15       97.19       97.24    
        97.30       97.37       97.45       97.53       97.63       97.73       97.83       97.94       98.05       98.16    
        98.27       98.38       98.48       98.59       98.70       98.80       98.90       99.00       99.10       99.19    
        99.28       99.37       99.45       99.53       99.61       99.68       99.75       99.82       99.88       99.94    
        100.0       100.1       100.1       100.2       100.2       100.3       100.3       100.3       100.4       100.4    
        100.4       100.5       100.5       100.5       100.5       100.6       100.6       100.6       100.6       100.6    
        100.6       100.6       100.6       100.7       100.7       100.7       100.7       100.6       100.6       100.6    
        100.6       100.6       100.6       100.6       100.5       100.5       100.5       100.4       100.3       100.2    
        100.0    
  10    100.0       99.52       99.20       98.97       98.78       98.62       98.48       98.34       98.21       98.09    
        97.97       97.86       97.74       97.63       97.52       97.42       97.32       97.23       97.15       97.07    
        97.00       96.95       96.91       96.88       96.86       96.86       96.88       96.90       96.95       97.00    
        97.07       97.15       97.24       97.33       97.44       97.55       97.66       97.78       97.90       98.02    
        98.14       98.26       98.38       98.49       98.61       98.72       98.83       98.93       99.04       99.14    
        99.23       99.32       99.41       99.50       99.58       99.66       99.73       99.80       99.87       99.94    
       100.00       100.1       100.1       100.2       100.2       100.3       100.3       100.3       100.4       100.4    
        100.5       100.5       100.5       100.5       100.6       100.6       100.6       100.6       100.6       100.7    
        100.7       100.7       100.7       100.7       100.7       100.7       100.7       100.7       100.7       100.7    
        100.6       100.6       100.6       100.6       100.6       100.5       100.5       100.4       100.3       100.2    
        100.0    
  11    100.0       99.49       99.16       98.91       98.71       98.54       98.39       98.24       98.11       97.97    
        97.84       97.72       97.59       97.47       97.35       97.24       97.13       97.03       96.93       96.85    
        96.77       96.71       96.66       96.63       96.61       96.61       96.62       96.65       96.70       96.76    
        96.84       96.93       97.03       97.13       97.25       97.37       97.49       97.62       97.75       97.88    
        98.01       98.14       98.27       98.40       98.52       98.64       98.76       98.87       98.98       99.08    
        99.18       99.28       99.38       99.47       99.55       99.63       99.71       99.79       99.86       99.93    
        99.99       100.1       100.1       100.2       100.2       100.3       100.3       100.4       100.4       100.4    
        100.5       100.5       100.5       100.6       100.6       100.6       100.6       100.6       100.7       100.7    
        100.7       100.7       100.7       100.7       100.7       100.7       100.7       100.7       100.7       100.7    
        100.7       100.7       100.6       100.6       100.6       100.5       100.5       100.4       100.3       100.2    
        100.0    
  12    100.0       99.47       99.12       98.86       98.65       98.47       98.30       98.15       98.00       97.86    
        97.72       97.58       97.44       97.31       97.18       97.05       96.93       96.82       96.71       96.62    
        96.53       96.46       96.41       96.37       96.35       96.35       96.36       96.40       96.45       96.52    
        96.60       96.70       96.81       96.93       97.06       97.19       97.33       97.47       97.61       97.75    
        97.89       98.03       98.17       98.30       98.43       98.56       98.69       98.81       98.92       99.03    
        99.14       99.24       99.34       99.44       99.53       99.61       99.70       99.78       99.85       99.92    
        99.99       100.1       100.1       100.2       100.2       100.3       100.3       100.4       100.4       100.5    
        100.5       100.5       100.6       100.6       100.6       100.6       100.7       100.7       100.7       100.7    
        100.7       100.7       100.7       100.7       100.7       100.7       100.7       100.7       100.7       100.7    
        100.7       100.7       100.7       100.6       100.6       100.6       100.5       100.4       100.3       100.2    
        100.0    
  13    100.0       99.44       99.08       98.81       98.58       98.39       98.22       98.05       97.90       97.74    
        97.59       97.44       97.30       97.15       97.01       96.87       96.74       96.61       96.49       96.38    
        96.29       96.21       96.15       96.11       96.08       96.08       96.10       96.13       96.19       96.27    
        96.36       96.47       96.59       96.72       96.86       97.01       97.16       97.31       97.47       97.62    
        97.77       97.92       98.07       98.21       98.35       98.49       98.62       98.75       98.87       98.99    
        99.10       99.21       99.31       99.41       99.50       99.59       99.68       99.76       99.84       99.91    
        99.98       100.1       100.1       100.2       100.2       100.3       100.3       100.4       100.4       100.5    
        100.5       100.5       100.6       100.6       100.6       100.7       100.7       100.7       100.7       100.7    
        100.7       100.7       100.8       100.8       100.8       100.8       100.8       100.7       100.7       100.7    
        100.7       100.7       100.7       100.6       100.6       100.6       100.5       100.4       100.3       100.2    
        100.0    
  14    100.0       99.42       99.04       98.76       98.52       98.32       98.14       97.96       97.80       97.63    
        97.47       97.31       97.15       96.99       96.84       96.69       96.54       96.40       96.27       96.15    
        96.04       95.95       95.88       95.83       95.80       95.80       95.82       95.86       95.93       96.01    
        96.12       96.24       96.37       96.52       96.67       96.83       96.99       97.16       97.33       97.49    
        97.65       97.81       97.97       98.12       98.27       98.42       98.55       98.69       98.82       98.94    
        99.06       99.17       99.28       99.38       99.48       99.58       99.67       99.75       99.83       99.91    
        99.98       100.1       100.1       100.2       100.2       100.3       100.3       100.4       100.4       100.5    
        100.5       100.6       100.6       100.6       100.6       100.7       100.7       100.7       100.7       100.7    
        100.8       100.8       100.8       100.8       100.8       100.8       100.8       100.8       100.8       100.7    
        100.7       100.7       100.7       100.7       100.6       100.6       100.5       100.5       100.4       100.2    
        100.0    
  15    100.0       99.40       99.00       98.71       98.46       98.25       98.06       97.88       97.70       97.52    
        97.35       97.18       97.01       96.84       96.67       96.50       96.34       96.19       96.04       95.91    
        95.79       95.69       95.61       95.55       95.52       95.52       95.54       95.58       95.66       95.75    
        95.87       96.00       96.15       96.31       96.48       96.65       96.83       97.01       97.19       97.37    
        97.54       97.71       97.88       98.04       98.20       98.35       98.49       98.63       98.77       98.90    
        99.02       99.14       99.25       99.36       99.46       99.56       99.65       99.74       99.82       99.90    
        99.98       100.1       100.1       100.2       100.2       100.3       100.4       100.4       100.4       100.5    
        100.5       100.6       100.6       100.6       100.7       100.7       100.7       100.7       100.7       100.8    
        100.8       100.8       100.8       100.8       100.8       100.8       100.8       100.8       100.8       100.8    
        100.8       100.7       100.7       100.7       100.6       100.6       100.5       100.5       100.4       100.2    
        100.0    
  16    100.0       99.38       98.97       98.66       98.41       98.19       97.98       97.79       97.61       97.42    
        97.24       97.05       96.87       96.69       96.50       96.32       96.15       95.98       95.82       95.67    
        95.53       95.42       95.33       95.27       95.23       95.22       95.25       95.30       95.38       95.49    
        95.61       95.76       95.93       96.10       96.28       96.47       96.67       96.86       97.05       97.24    
        97.43       97.61       97.79       97.96       98.13       98.28       98.44       98.58       98.72       98.86    
        98.99       99.11       99.23       99.34       99.44       99.55       99.64       99.73       99.82       99.90    
        99.98       100.1       100.1       100.2       100.2       100.3       100.4       100.4       100.5       100.5    
        100.5       100.6       100.6       100.6       100.7       100.7       100.7       100.7       100.8       100.8    
        100.8       100.8       100.8       100.8       100.8       100.8       100.8       100.8       100.8       100.8    
        100.8       100.7       100.7       100.7       100.7       100.6       100.5       100.5       100.4       100.2    
        100.0    
  17    100.0       99.36       98.94       98.62       98.36       98.13       97.92       97.71       97.52       97.32    
        97.13       96.93       96.74       96.54       96.34       96.15       95.95       95.77       95.59       95.43    
        95.28       95.15       95.05       94.98       94.94       94.93       94.95       95.01       95.10       95.22    
        95.36       95.52       95.70       95.90       96.10       96.30       96.51       96.72       96.92       97.13    
        97.33       97.52       97.70       97.88       98.06       98.22       98.38       98.54       98.68       98.82    
        98.96       99.08       99.20       99.32       99.43       99.53       99.63       99.72       99.81       99.90    
        99.98       100.1       100.1       100.2       100.3       100.3       100.4       100.4       100.5       100.5    
        100.6       100.6       100.6       100.7       100.7       100.7       100.7       100.8       100.8       100.8    
        100.8       100.8       100.8       100.8       100.8       100.8       100.8       100.8       100.8       100.8    
        100.8       100.8       100.7       100.7       100.7       100.6       100.6       100.5       100.4       100.2    
        100.0    
  18    100.0       99.34       98.91       98.58       98.31       98.07       97.85       97.64       97.43       97.23    
        97.03       96.82       96.61       96.40       96.19       95.98       95.77       95.56       95.37       95.19    
        95.03       94.89       94.77       94.69       94.64       94.63       94.66       94.72       94.82       94.95    
        95.11       95.29       95.49       95.70       95.91       96.14       96.36       96.58       96.80       97.02    
        97.23       97.43       97.63       97.82       98.00       98.17       98.34       98.50       98.65       98.79    
        98.93       99.06       99.18       99.30       99.42       99.52       99.62       99.72       99.81       99.90    
        99.98       100.1       100.1       100.2       100.3       100.3       100.4       100.4       100.5       100.5    
        100.6       100.6       100.6       100.7       100.7       100.7       100.8       100.8       100.8       100.8    
        100.8       100.8       100.8       100.9       100.9       100.9       100.8       100.8       100.8       100.8    
        100.8       100.8       100.7       100.7       100.7       100.6       100.6       100.5       100.4       100.2    
        100.0    
  19    100.0       99.33       98.88       98.54       98.26       98.02       97.79       97.57       97.36       97.15    
        96.93       96.71       96.49       96.27       96.04       95.82       95.59       95.37       95.16       94.96    
        94.78       94.63       94.50       94.41       94.35       94.34       94.37       94.44       94.55       94.69    
        94.87       95.06       95.28       95.50       95.74       95.98       96.22       96.46       96.69       96.92    
        97.14       97.35       97.56       97.75       97.94       98.12       98.29       98.46       98.61       98.76    
        98.91       99.04       99.17       99.29       99.40       99.51       99.62       99.72       99.81       99.90    
        99.98       100.1       100.1       100.2       100.3       100.3       100.4       100.4       100.5       100.5    
        100.6       100.6       100.7       100.7       100.7       100.8       100.8       100.8       100.8       100.8    
        100.8       100.9       100.9       100.9       100.9       100.9       100.9       100.9       100.8       100.8    
        100.8       100.8       100.8       100.7       100.7       100.6       100.6       100.5       100.4       100.2    
        100.0    
  20    100.0       99.31       98.85       98.51       98.23       97.97       97.74       97.51       97.29       97.07    
        96.85       96.62       96.38       96.15       95.91       95.67       95.43       95.19       94.96       94.75    
        94.55       94.38       94.24       94.14       94.08       94.06       94.09       94.17       94.29       94.45    
        94.64       94.85       95.08       95.33       95.58       95.83       96.09       96.34       96.59       96.82    
        97.06       97.28       97.49       97.70       97.89       98.08       98.26       98.43       98.59       98.74    
        98.89       99.02       99.16       99.28       99.40       99.51       99.62       99.72       99.81       99.90    
        99.98       100.1       100.1       100.2       100.3       100.3       100.4       100.5       100.5       100.6    
        100.6       100.6       100.7       100.7       100.7       100.8       100.8       100.8       100.8       100.8    
        100.9       100.9       100.9       100.9       100.9       100.9       100.9       100.9       100.9       100.8    
        100.8       100.8       100.8       100.7       100.7       100.6       100.6       100.5       100.4       100.2    
        100.0    
  21    100.0       99.30       98.83       98.48       98.19       97.93       97.69       97.46       97.23       97.00    
        96.77       96.53       96.29       96.04       95.79       95.53       95.28       95.03       94.78       94.55    
        94.34       94.15       94.00       93.89       93.82       93.80       93.84       93.92       94.05       94.22    
        94.43       94.66       94.90       95.17       95.43       95.70       95.97       96.24       96.50       96.75    
        96.99       97.22       97.44       97.65       97.85       98.05       98.23       98.40       98.57       98.72    
        98.87       99.01       99.15       99.27       99.39       99.51       99.61       99.72       99.81       99.90    
        99.99       100.1       100.1       100.2       100.3       100.4       100.4       100.5       100.5       100.6    
        100.6       100.7       100.7       100.7       100.8       100.8       100.8       100.8       100.8       100.9    
        100.9       100.9       100.9       100.9       100.9       100.9       100.9       100.9       100.9       100.9    
        100.8       100.8       100.8       100.8       100.7       100.7       100.6       100.5       100.4       100.2    
        100.0    
  22    100.0       99.29       98.82       98.46       98.17       97.90       97.66       97.42       97.19       96.95    
        96.71       96.46       96.21       95.95       95.69       95.42       95.15       94.89       94.63       94.38    
        94.15       93.95       93.79       93.66       93.59       93.57       93.61       93.70       93.84       94.02    
        94.24       94.49       94.75       95.03       95.31       95.60       95.88       96.15       96.42       96.68    
        96.93       97.17       97.40       97.61       97.82       98.02       98.21       98.38       98.55       98.71    
        98.86       99.01       99.14       99.27       99.39       99.51       99.62       99.72       99.82       99.91    
       100.00       100.1       100.2       100.2       100.3       100.4       100.4       100.5       100.5       100.6    
        100.6       100.7       100.7       100.7       100.8       100.8       100.8       100.8       100.9       100.9    
        100.9       100.9       100.9       100.9       100.9       100.9       100.9       100.9       100.9       100.9    
        100.9       100.8       100.8       100.8       100.7       100.7       100.6       100.5       100.4       100.2    
        100.0    
  23    100.0       99.28       98.80       98.44       98.14       97.88       97.63       97.39       97.15       96.91    
        96.66       96.41       96.15       95.88       95.61       95.33       95.05       94.77       94.50       94.24    
        94.00       93.79       93.61       93.48       93.40       93.38       93.42       93.52       93.67       93.86    
        94.09       94.35       94.63       94.92       95.21       95.51       95.80       96.09       96.36       96.63    
        96.89       97.13       97.37       97.59       97.80       98.00       98.19       98.37       98.54       98.70    
        98.86       99.00       99.14       99.27       99.39       99.51       99.62       99.73       99.83       99.92    
        100.0       100.1       100.2       100.2       100.3       100.4       100.4       100.5       100.5       100.6    
        100.6       100.7       100.7       100.8       100.8       100.8       100.8       100.9       100.9       100.9    
        100.9       100.9       100.9       100.9       100.9       100.9       100.9       100.9       100.9       100.9    
        100.9       100.8       100.8       100.8       100.7       100.7       100.6       100.5       100.4       100.3    
        100.0    
  24    100.0       99.28       98.80       98.43       98.13       97.86       97.61       97.37       97.12       96.88    
        96.63       96.37       96.11       95.83       95.55       95.27       94.98       94.69       94.41       94.14    
        93.89       93.66       93.48       93.34       93.26       93.24       93.28       93.38       93.54       93.74    
        93.98       94.25       94.54       94.84       95.14       95.45       95.75       96.04       96.32       96.60    
        96.86       97.11       97.35       97.57       97.79       97.99       98.18       98.37       98.54       98.70    
        98.86       99.01       99.14       99.28       99.40       99.52       99.63       99.74       99.84       99.93    
        100.0       100.1       100.2       100.3       100.3       100.4       100.5       100.5       100.6       100.6    
        100.7       100.7       100.7       100.8       100.8       100.8       100.9       100.9       100.9       100.9    
        100.9       100.9       100.9       100.9       100.9       100.9       100.9       100.9       100.9       100.9    
        100.9       100.9       100.8       100.8       100.7       100.7       100.6       100.5       100.4       100.3    
        100.0    
  25    100.0       99.27       98.79       98.43       98.12       97.85       97.60       97.35       97.11       96.86    
        96.61       96.35       96.08       95.80       95.52       95.23       94.94       94.64       94.35       94.08    
        93.82       93.59       93.40       93.26       93.18       93.15       93.19       93.30       93.46       93.67    
        93.92       94.19       94.49       94.79       95.11       95.42       95.72       96.02       96.31       96.58    
        96.85       97.10       97.34       97.57       97.78       97.99       98.18       98.37       98.54       98.71    
        98.86       99.01       99.15       99.28       99.41       99.53       99.64       99.75       99.85       99.94    
        100.0       100.1       100.2       100.3       100.3       100.4       100.5       100.5       100.6       100.6    
        100.7       100.7       100.8       100.8       100.8       100.8       100.9       100.9       100.9       100.9    
        100.9       101.0       101.0       101.0       101.0       101.0       101.0       100.9       100.9       100.9    
        100.9       100.9       100.8       100.8       100.7       100.7       100.6       100.5       100.4       100.3    
        100.0    
  26    100.0       99.28       98.79       98.43       98.13       97.85       97.60       97.35       97.11       96.86    
        96.61       96.35       96.08       95.80       95.52       95.22       94.93       94.63       94.34       94.06    
        93.80       93.57       93.38       93.24       93.15       93.13       93.17       93.28       93.44       93.65    
        93.90       94.18       94.48       94.79       95.10       95.41       95.72       96.02       96.31       96.59    
        96.85       97.10       97.35       97.58       97.79       98.00       98.19       98.38       98.55       98.72    
        98.88       99.02       99.17       99.30       99.42       99.54       99.66       99.76       99.86       99.96    
        100.0       100.1       100.2       100.3       100.4       100.4       100.5       100.5       100.6       100.6    
        100.7       100.7       100.8       100.8       100.8       100.9       100.9       100.9       100.9       100.9    
        101.0       101.0       101.0       101.0       101.0       101.0       101.0       101.0       100.9       100.9    
        100.9       100.9       100.8       100.8       100.8       100.7       100.6       100.5       100.4       100.3    
        100.0    
  27    100.0       99.28       98.80       98.44       98.13       97.86       97.61       97.37       97.12       96.88    
        96.62       96.36       96.10       95.82       95.54       95.25       94.95       94.66       94.37       94.09    
        93.84       93.61       93.42       93.28       93.19       93.17       93.21       93.32       93.48       93.69    
        93.94       94.21       94.51       94.82       95.13       95.44       95.74       96.04       96.33       96.61    
        96.87       97.13       97.37       97.59       97.81       98.02       98.21       98.40       98.57       98.74    
        98.89       99.04       99.18       99.32       99.44       99.56       99.67       99.78       99.88       99.97    
        100.1       100.1       100.2       100.3       100.4       100.4       100.5       100.6       100.6       100.7    
        100.7       100.7       100.8       100.8       100.9       100.9       100.9       100.9       100.9       101.0    
        101.0       101.0       101.0       101.0       101.0       101.0       101.0       101.0       101.0       100.9    
        100.9       100.9       100.9       100.8       100.8       100.7       100.6       100.6       100.4       100.3    
        100.0    
  28    100.0       99.28       98.81       98.45       98.15       97.88       97.63       97.39       97.15       96.90    
        96.65       96.40       96.13       95.86       95.58       95.30       95.01       94.72       94.44       94.17    
        93.92       93.70       93.52       93.38       93.30       93.28       93.32       93.42       93.58       93.78    
        94.02       94.29       94.58       94.88       95.19       95.50       95.80       96.09       96.37       96.65    
        96.91       97.16       97.40       97.63       97.84       98.05       98.24       98.42       98.60       98.76    
        98.92       99.06       99.20       99.34       99.46       99.58       99.69       99.80       99.90       99.99    
        100.1       100.2       100.2       100.3       100.4       100.5       100.5       100.6       100.6       100.7    
        100.7       100.8       100.8       100.8       100.9       100.9       100.9       100.9       101.0       101.0    
        101.0       101.0       101.0       101.0       101.0       101.0       101.0       101.0       101.0       100.9    
        100.9       100.9       100.9       100.8       100.8       100.7       100.6       100.6       100.4       100.3    
        100.0    
  29    100.0       99.29       98.82       98.47       98.17       97.91       97.66       97.42       97.19       96.95    
        96.70       96.45       96.19       95.93       95.66       95.38       95.10       94.82       94.55       94.29    
        94.05       93.84       93.67       93.54       93.46       93.44       93.48       93.58       93.73       93.92    
        94.16       94.42       94.70       94.99       95.28       95.58       95.87       96.16       96.44       96.71    
        96.96       97.21       97.44       97.67       97.88       98.08       98.27       98.46       98.63       98.79    
        98.95       99.09       99.23       99.36       99.49       99.60       99.72       99.82       99.92       100.0    
        100.1       100.2       100.3       100.3       100.4       100.5       100.5       100.6       100.6       100.7    
        100.7       100.8       100.8       100.9       100.9       100.9       100.9       101.0       101.0       101.0    
        101.0       101.0       101.0       101.0       101.0       101.0       101.0       101.0       101.0       101.0    
        100.9       100.9       100.9       100.8       100.8       100.7       100.7       100.6       100.4       100.3    
        100.0    
  30    100.0       99.30       98.84       98.49       98.20       97.94       97.70       97.47       97.24       97.00    
        96.76       96.52       96.27       96.01       95.75       95.49       95.22       94.95       94.69       94.45    
        94.22       94.02       93.86       93.74       93.67       93.65       93.69       93.78       93.92       94.11    
        94.33       94.58       94.84       95.12       95.40       95.69       95.97       96.25       96.52       96.78    
        97.03       97.27       97.50       97.72       97.93       98.13       98.32       98.50       98.67       98.83    
        98.98       99.12       99.26       99.39       99.51       99.63       99.74       99.85       99.95       100.0    
        100.1       100.2       100.3       100.4       100.4       100.5       100.6       100.6       100.7       100.7    
        100.8       100.8       100.8       100.9       100.9       100.9       101.0       101.0       101.0       101.0    
        101.0       101.0       101.0       101.0       101.0       101.0       101.0       101.0       101.0       101.0    
        100.9       100.9       100.9       100.8       100.8       100.7       100.7       100.6       100.4       100.3    
        100.0    
  31    100.0       99.32       98.86       98.52       98.24       97.99       97.75       97.52       97.30       97.07    
        96.84       96.60       96.36       96.12       95.87       95.61       95.36       95.11       94.87       94.64    
        94.43       94.24       94.09       93.98       93.92       93.90       93.94       94.02       94.16       94.33    
        94.53       94.77       95.02       95.28       95.55       95.82       96.09       96.36       96.62       96.87    
        97.11       97.35       97.57       97.78       97.99       98.18       98.37       98.54       98.71       98.87    
        99.02       99.16       99.30       99.43       99.55       99.66       99.77       99.87       99.97       100.1    
        100.2       100.2       100.3       100.4       100.5       100.5       100.6       100.6       100.7       100.7    
        100.8       100.8       100.9       100.9       100.9       100.9       101.0       101.0       101.0       101.0    
        101.0       101.0       101.0       101.0       101.0       101.0       101.0       101.0       101.0       101.0    
        101.0       100.9       100.9       100.9       100.8       100.7       100.7       100.6       100.5       100.3    
        100.0    
  32    100.0       99.33       98.89       98.56       98.28       98.04       97.81       97.59       97.37       97.15    
        96.93       96.70       96.47       96.24       96.00       95.76       95.52       95.29       95.06       94.85    
        94.66       94.49       94.35       94.25       94.19       94.18       94.21       94.29       94.42       94.58    
        94.77       94.98       95.22       95.46       95.72       95.97       96.23       96.49       96.73       96.98    
        97.21       97.43       97.65       97.86       98.06       98.24       98.42       98.60       98.76       98.91    
        99.06       99.20       99.34       99.46       99.58       99.70       99.80       99.91       100.0       100.1    
        100.2       100.3       100.3       100.4       100.5       100.5       100.6       100.7       100.7       100.8    
        100.8       100.8       100.9       100.9       100.9       101.0       101.0       101.0       101.0       101.0    
        101.0       101.1       101.1       101.1       101.1       101.1       101.0       101.0       101.0       101.0    
        101.0       100.9       100.9       100.9       100.8       100.7       100.7       100.6       100.5       100.3    
        100.0    
  33    100.0       99.35       98.92       98.60       98.33       98.09       97.87       97.66       97.45       97.24    
        97.03       96.81       96.59       96.37       96.15       95.93       95.70       95.49       95.28       95.08    
        94.90       94.75       94.63       94.54       94.49       94.48       94.51       94.58       94.70       94.84    
        95.02       95.22       95.43       95.66       95.90       96.14       96.38       96.62       96.86       97.09    
        97.31       97.53       97.74       97.94       98.13       98.31       98.49       98.66       98.81       98.97    
        99.11       99.25       99.38       99.50       99.62       99.73       99.84       99.94       100.0       100.1    
        100.2       100.3       100.4       100.4       100.5       100.6       100.6       100.7       100.7       100.8    
        100.8       100.9       100.9       100.9       101.0       101.0       101.0       101.0       101.0       101.1    
        101.1       101.1       101.1       101.1       101.1       101.1       101.1       101.0       101.0       101.0    
        101.0       100.9       100.9       100.9       100.8       100.8       100.7       100.6       100.5       100.3    
        100.0    
  34    100.0       99.37       98.96       98.64       98.38       98.15       97.94       97.73       97.53       97.33    
        97.13       96.93       96.72       96.52       96.31       96.10       95.90       95.70       95.50       95.33    
        95.17       95.03       94.92       94.84       94.79       94.79       94.82       94.88       94.99       95.12    
        95.28       95.46       95.66       95.87       96.10       96.32       96.55       96.77       97.00       97.22    
        97.43       97.64       97.84       98.03       98.21       98.39       98.56       98.72       98.88       99.02    
        99.16       99.30       99.42       99.55       99.66       99.77       99.87       99.97       100.1       100.2    
        100.2       100.3       100.4       100.5       100.5       100.6       100.6       100.7       100.7       100.8    
        100.8       100.9       100.9       100.9       101.0       101.0       101.0       101.0       101.1       101.1    
        101.1       101.1       101.1       101.1       101.1       101.1       101.1       101.1       101.0       101.0    
        101.0       101.0       100.9       100.9       100.8       100.8       100.7       100.6       100.5       100.3    
        100.0    
  35    100.0       99.39       98.99       98.69       98.44       98.22       98.01       97.82       97.63       97.44    
        97.25       97.06       96.86       96.67       96.48       96.28       96.10       95.91       95.74       95.58    
        95.43       95.31       95.21       95.14       95.11       95.10       95.13       95.19       95.28       95.40    
        95.55       95.72       95.90       96.10       96.30       96.51       96.72       96.93       97.14       97.35    
        97.55       97.75       97.94       98.12       98.30       98.47       98.63       98.79       98.94       99.08    
        99.22       99.35       99.47       99.59       99.71       99.81       99.91       100.0       100.1       100.2    
        100.3       100.3       100.4       100.5       100.6       100.6       100.7       100.7       100.8       100.8    
        100.9       100.9       100.9       101.0       101.0       101.0       101.0       101.1       101.1       101.1    
        101.1       101.1       101.1       101.1       101.1       101.1       101.1       101.1       101.0       101.0    
        101.0       101.0       100.9       100.9       100.8       100.8       100.7       100.6       100.5       100.3    
        100.0    
  36    100.0       99.42       99.03       98.74       98.50       98.29       98.09       97.91       97.73       97.55    
        97.37       97.19       97.01       96.83       96.65       96.47       96.30       96.14       95.98       95.83    
        95.70       95.60       95.51       95.45       95.42       95.41       95.44       95.50       95.58       95.69    
        95.82       95.97       96.14       96.32       96.51       96.70       96.90       97.10       97.29       97.49    
        97.68       97.87       98.05       98.22       98.39       98.56       98.71       98.86       99.01       99.15    
        99.28       99.41       99.53       99.64       99.75       99.86       99.96       100.1       100.1       100.2    
        100.3       100.4       100.5       100.5       100.6       100.6       100.7       100.7       100.8       100.8    
        100.9       100.9       101.0       101.0       101.0       101.0       101.1       101.1       101.1       101.1    
        101.1       101.1       101.1       101.1       101.1       101.1       101.1       101.1       101.1       101.0    
        101.0       101.0       100.9       100.9       100.8       100.8       100.7       100.6       100.5       100.3    
        100.0    
  37    100.0       99.44       99.07       98.79       98.56       98.36       98.18       98.00       97.83       97.66    
        97.49       97.33       97.16       96.99       96.83       96.67       96.51       96.36       96.22       96.09    
        95.97       95.88       95.80       95.75       95.72       95.72       95.74       95.80       95.87       95.97    
        96.09       96.23       96.38       96.55       96.72       96.90       97.08       97.27       97.45       97.63    
        97.81       97.99       98.16       98.33       98.49       98.65       98.80       98.94       99.08       99.21    
        99.34       99.47       99.58       99.69       99.80       99.90      100.00       100.1       100.2       100.3    
        100.3       100.4       100.5       100.5       100.6       100.7       100.7       100.8       100.8       100.9    
        100.9       100.9       101.0       101.0       101.0       101.1       101.1       101.1       101.1       101.1    
        101.1       101.1       101.1       101.1       101.1       101.1       101.1       101.1       101.1       101.0    
        101.0       101.0       100.9       100.9       100.8       100.8       100.7       100.6       100.5       100.3    
        100.0    
  38    100.0       99.47       99.11       98.85       98.63       98.44       98.26       98.10       97.94       97.78    
        97.62       97.47       97.31       97.16       97.01       96.86       96.72       96.58       96.46       96.34    
        96.24       96.15       96.09       96.04       96.02       96.02       96.04       96.09       96.16       96.25    
        96.36       96.49       96.62       96.77       96.93       97.10       97.27       97.44       97.61       97.78    
        97.95       98.11       98.28       98.44       98.59       98.74       98.88       99.02       99.16       99.28    
        99.41       99.53       99.64       99.75       99.85       99.95       100.0       100.1       100.2       100.3    
        100.4       100.4       100.5       100.6       100.6       100.7       100.8       100.8       100.8       100.9    
        100.9       101.0       101.0       101.0       101.0       101.1       101.1       101.1       101.1       101.1    
        101.1       101.1       101.1       101.1       101.1       101.1       101.1       101.1       101.1       101.1    
        101.0       101.0       101.0       100.9       100.9       100.8       100.7       100.6       100.5       100.3    
        100.0    
  39    100.0       99.49       99.16       98.91       98.70       98.52       98.35       98.20       98.05       97.90    
        97.75       97.61       97.47       97.33       97.19       97.05       96.92       96.80       96.69       96.59    
        96.50       96.42       96.36       96.32       96.31       96.31       96.33       96.37       96.44       96.52    
        96.62       96.73       96.86       97.00       97.14       97.29       97.45       97.61       97.77       97.93    
        98.09       98.24       98.40       98.55       98.69       98.83       98.97       99.10       99.23       99.36    
        99.48       99.59       99.70       99.80       99.90      100.00       100.1       100.2       100.3       100.3    
        100.4       100.5       100.6       100.6       100.7       100.7       100.8       100.8       100.9       100.9    
        101.0       101.0       101.0       101.0       101.1       101.1       101.1       101.1       101.1       101.1    
        101.2       101.2       101.2       101.2       101.1       101.1       101.1       101.1       101.1       101.1    
        101.0       101.0       101.0       100.9       100.9       100.8       100.7       100.6       100.5       100.3    
        100.0    
  40    100.0       99.52       99.20       98.96       98.77       98.60       98.44       98.30       98.16       98.02    
        97.88       97.75       97.62       97.49       97.37       97.24       97.13       97.02       96.92       96.82    
        96.75       96.68       96.63       96.60       96.58       96.59       96.61       96.65       96.71       96.78    
        96.87       96.98       97.09       97.22       97.35       97.49       97.63       97.78       97.93       98.08    
        98.23       98.37       98.52       98.66       98.80       98.93       99.06       99.19       99.31       99.43    
        99.54       99.65       99.76       99.86       99.96       100.1       100.1       100.2       100.3       100.4    
        100.5       100.5       100.6       100.6       100.7       100.8       100.8       100.9       100.9       100.9    
        101.0       101.0       101.0       101.1       101.1       101.1       101.1       101.1       101.2       101.2    
        101.2       101.2       101.2       101.2       101.2       101.2       101.1       101.1       101.1       101.1    
        101.0       101.0       101.0       100.9       100.9       100.8       100.7       100.6       100.5       100.3    
        100.0    
  41    100.0       99.55       99.25       99.02       98.84       98.68       98.53       98.40       98.27       98.14    
        98.01       97.89       97.77       97.65       97.54       97.43       97.33       97.23       97.14       97.06    
        96.99       96.93       96.89       96.86       96.85       96.85       96.87       96.91       96.96       97.03    
        97.11       97.21       97.31       97.43       97.55       97.68       97.81       97.95       98.09       98.23    
        98.36       98.50       98.64       98.77       98.90       99.03       99.15       99.27       99.39       99.51    
        99.61       99.72       99.82       99.92       100.0       100.1       100.2       100.3       100.3       100.4    
        100.5       100.6       100.6       100.7       100.7       100.8       100.8       100.9       100.9       101.0    
        101.0       101.0       101.1       101.1       101.1       101.1       101.1       101.2       101.2       101.2    
        101.2       101.2       101.2       101.2       101.2       101.2       101.2       101.1       101.1       101.1    
        101.1       101.0       101.0       100.9       100.9       100.8       100.7       100.6       100.5       100.3    
        100.0    
  42    100.0       99.57       99.29       99.08       98.91       98.76       98.62       98.50       98.38       98.26    
        98.14       98.03       97.92       97.81       97.71       97.61       97.52       97.43       97.35       97.28    
        97.22       97.17       97.13       97.11       97.10       97.10       97.13       97.16       97.21       97.27    
        97.35       97.43       97.53       97.64       97.75       97.87       97.99       98.11       98.24       98.37    
        98.50       98.63       98.76       98.88       99.01       99.13       99.25       99.36       99.47       99.58    
        99.69       99.79       99.88       99.98       100.1       100.2       100.2       100.3       100.4       100.5    
        100.5       100.6       100.7       100.7       100.8       100.8       100.9       100.9       100.9       101.0    
        101.0       101.1       101.1       101.1       101.1       101.1       101.2       101.2       101.2       101.2    
        101.2       101.2       101.2       101.2       101.2       101.2       101.2       101.1       101.1       101.1    
        101.1       101.0       101.0       100.9       100.9       100.8       100.7       100.6       100.5       100.3    
        100.0    
  43    100.0       99.60       99.34       99.14       98.98       98.84       98.72       98.60       98.48       98.38    
        98.27       98.17       98.07       97.97       97.88       97.79       97.70       97.63       97.56       97.49    
        97.44       97.40       97.37       97.35       97.34       97.35       97.37       97.40       97.44       97.50    
        97.57       97.65       97.74       97.84       97.94       98.05       98.16       98.28       98.40       98.52    
        98.64       98.76       98.88       99.00       99.11       99.23       99.34       99.45       99.56       99.66    
        99.76       99.86       99.95       100.0       100.1       100.2       100.3       100.4       100.4       100.5    
        100.6       100.6       100.7       100.7       100.8       100.8       100.9       100.9       101.0       101.0    
        101.0       101.1       101.1       101.1       101.1       101.2       101.2       101.2       101.2       101.2    
        101.2       101.2       101.2       101.2       101.2       101.2       101.2       101.2       101.1       101.1    
        101.1       101.0       101.0       100.9       100.9       100.8       100.7       100.6       100.5       100.3    
        100.0    
  44    100.0       99.63       99.38       99.20       99.05       98.92       98.81       98.70       98.59       98.49    
        98.40       98.30       98.21       98.12       98.04       97.96       97.88       97.82       97.75       97.70    
        97.65       97.61       97.59       97.57       97.57       97.58       97.59       97.63       97.67       97.72    
        97.78       97.86       97.94       98.03       98.12       98.22       98.33       98.44       98.55       98.66    
        98.77       98.88       99.00       99.11       99.22       99.33       99.43       99.54       99.64       99.74    
        99.83       99.92       100.0       100.1       100.2       100.3       100.3       100.4       100.5       100.5    
        100.6       100.7       100.7       100.8       100.8       100.9       100.9       101.0       101.0       101.0    
        101.1       101.1       101.1       101.1       101.2       101.2       101.2       101.2       101.2       101.2    
        101.2       101.2       101.2       101.2       101.2       101.2       101.2       101.2       101.1       101.1    
        101.1       101.0       101.0       101.0       100.9       100.8       100.7       100.6       100.5       100.3    
        100.0    
  45    100.0       99.66       99.43       99.26       99.12       99.00       98.89       98.79       98.70       98.61    
        98.52       98.43       98.35       98.27       98.20       98.13       98.06       98.00       97.94       97.89    
        97.85       97.82       97.80       97.79       97.78       97.79       97.81       97.84       97.88       97.93    
        97.99       98.06       98.13       98.21       98.30       98.39       98.49       98.59       98.69       98.80    
        98.90       99.01       99.11       99.22       99.32       99.42       99.52       99.62       99.72       99.81    
        99.90       99.99       100.1       100.2       100.2       100.3       100.4       100.5       100.5       100.6    
        100.7       100.7       100.8       100.8       100.9       100.9       101.0       101.0       101.0       101.1    
        101.1       101.1       101.1       101.2       101.2       101.2       101.2       101.2       101.2       101.2    
        101.2       101.2       101.2       101.2       101.2       101.2       101.2       101.2       101.2       101.1    
        101.1       101.1       101.0       101.0       100.9       100.8       100.8       100.6       100.5       100.3    
        100.0    
  46    100.0       99.68       99.47       99.32       99.19       99.08       98.98       98.89       98.80       98.72    
        98.64       98.56       98.49       98.42       98.35       98.28       98.22       98.17       98.12       98.08    
        98.05       98.02       98.00       97.99       97.99       98.00       98.02       98.05       98.08       98.13    
        98.18       98.24       98.31       98.39       98.47       98.56       98.65       98.74       98.83       98.93    
        99.03       99.13       99.23       99.33       99.42       99.52       99.62       99.71       99.80       99.89    
        99.98       100.1       100.1       100.2       100.3       100.4       100.4       100.5       100.6       100.6    
        100.7       100.7       100.8       100.9       100.9       100.9       101.0       101.0       101.1       101.1    
        101.1       101.1       101.2       101.2       101.2       101.2       101.2       101.2       101.3       101.3    
        101.3       101.3       101.3       101.2       101.2       101.2       101.2       101.2       101.2       101.1    
        101.1       101.1       101.0       101.0       100.9       100.8       100.8       100.7       100.5       100.3    
        100.0    
  47    100.0       99.71       99.52       99.37       99.26       99.16       99.07       98.98       98.90       98.83    
        98.76       98.69       98.62       98.55       98.49       98.44       98.38       98.34       98.29       98.26    
        98.23       98.21       98.19       98.18       98.18       98.19       98.21       98.24       98.27       98.32    
        98.37       98.42       98.49       98.56       98.63       98.71       98.80       98.88       98.97       99.06    
        99.15       99.25       99.34       99.43       99.52       99.62       99.70       99.79       99.88       99.96    
        100.0       100.1       100.2       100.3       100.4       100.4       100.5       100.6       100.6       100.7    
        100.7       100.8       100.8       100.9       100.9       101.0       101.0       101.0       101.1       101.1    
        101.1       101.2       101.2       101.2       101.2       101.2       101.3       101.3       101.3       101.3    
        101.3       101.3       101.3       101.3       101.2       101.2       101.2       101.2       101.2       101.1    
        101.1       101.1       101.0       101.0       100.9       100.8       100.8       100.7       100.5       100.3    
        100.0    
  48    100.0       99.74       99.56       99.43       99.32       99.23       99.15       99.07       99.00       98.93    
        98.87       98.81       98.75       98.69       98.63       98.58       98.54       98.50       98.46       98.43    
        98.40       98.38       98.37       98.37       98.37       98.38       98.40       98.42       98.46       98.50    
        98.54       98.60       98.66       98.72       98.79       98.86       98.94       99.02       99.10       99.19    
        99.27       99.36       99.45       99.54       99.62       99.71       99.79       99.88       99.96       100.0    
        100.1       100.2       100.3       100.3       100.4       100.5       100.5       100.6       100.7       100.7    
        100.8       100.8       100.9       100.9       101.0       101.0       101.0       101.1       101.1       101.1    
        101.2       101.2       101.2       101.2       101.2       101.3       101.3       101.3       101.3       101.3    
        101.3       101.3       101.3       101.3       101.3       101.2       101.2       101.2       101.2       101.2    
        101.1       101.1       101.0       101.0       100.9       100.9       100.8       100.7       100.5       100.3    
        100.0    
  49    100.0       99.76       99.60       99.49       99.39       99.31       99.23       99.16       99.10       99.04    
        98.98       98.92       98.87       98.82       98.77       98.72       98.68       98.65       98.61       98.59    
        98.57       98.55       98.54       98.54       98.54       98.55       98.57       98.60       98.63       98.67    
        98.71       98.76       98.81       98.88       98.94       99.01       99.08       99.16       99.23       99.31    
        99.39       99.47       99.56       99.64       99.72       99.80       99.88       99.96       100.0       100.1    
        100.2       100.3       100.3       100.4       100.5       100.5       100.6       100.7       100.7       100.8    
        100.8       100.9       100.9       101.0       101.0       101.0       101.1       101.1       101.1       101.2    
        101.2       101.2       101.2       101.3       101.3       101.3       101.3       101.3       101.3       101.3    
        101.3       101.3       101.3       101.3       101.3       101.3       101.2       101.2       101.2       101.2    
        101.1       101.1       101.0       101.0       100.9       100.9       100.8       100.7       100.5       100.3    
        100.0    
  50    100.0       99.79       99.64       99.54       99.45       99.38       99.31       99.25       99.19       99.14    
        99.08       99.03       98.99       98.94       98.90       98.86       98.82       98.79       98.76       98.74    
        98.72       98.71       98.70       98.70       98.71       98.72       98.74       98.76       98.79       98.83    
        98.87       98.91       98.97       99.02       99.08       99.15       99.21       99.28       99.36       99.43    
        99.51       99.58       99.66       99.74       99.81       99.89       99.96       100.0       100.1       100.2    
        100.3       100.3       100.4       100.5       100.5       100.6       100.6       100.7       100.8       100.8    
        100.9       100.9       100.9       101.0       101.0       101.1       101.1       101.1       101.2       101.2    
        101.2       101.2       101.3       101.3       101.3       101.3       101.3       101.3       101.3       101.3    
        101.3       101.3       101.3       101.3       101.3       101.3       101.2       101.2       101.2       101.2    
        101.1       101.1       101.0       101.0       100.9       100.9       100.8       100.7       100.5       100.3    
        100.0    
  51    100.0       99.81       99.68       99.59       99.51       99.45       99.39       99.33       99.28       99.23    
        99.18       99.14       99.10       99.06       99.02       98.99       98.96       98.93       98.91       98.89    
        98.87       98.86       98.86       98.86       98.86       98.88       98.89       98.92       98.95       98.98    
        99.02       99.06       99.11       99.16       99.22       99.28       99.34       99.41       99.48       99.54    
        99.61       99.69       99.76       99.83       99.90       99.98       100.0       100.1       100.2       100.3    
        100.3       100.4       100.5       100.5       100.6       100.6       100.7       100.7       100.8       100.8    
        100.9       100.9       101.0       101.0       101.1       101.1       101.1       101.2       101.2       101.2    
        101.2       101.3       101.3       101.3       101.3       101.3       101.3       101.3       101.3       101.3    
        101.3       101.3       101.3       101.3       101.3       101.3       101.3       101.2       101.2       101.2    
        101.1       101.1       101.1       101.0       100.9       100.9       100.8       100.7       100.5       100.3    
        100.0    
  52    100.0       99.83       99.72       99.64       99.57       99.51       99.46       99.41       99.37       99.32    
        99.28       99.24       99.21       99.17       99.14       99.11       99.08       99.06       99.04       99.02    
        99.01       99.01       99.00       99.01       99.01       99.02       99.04       99.06       99.09       99.12    
        99.16       99.20       99.25       99.30       99.35       99.41       99.47       99.53       99.59       99.65    
        99.72       99.79       99.86       99.92       99.99       100.1       100.1       100.2       100.3       100.3    
        100.4       100.5       100.5       100.6       100.6       100.7       100.7       100.8       100.8       100.9    
        100.9       101.0       101.0       101.1       101.1       101.1       101.2       101.2       101.2       101.2    
        101.3       101.3       101.3       101.3       101.3       101.3       101.3       101.3       101.3       101.3    
        101.3       101.3       101.3       101.3       101.3       101.3       101.3       101.2       101.2       101.2    
        101.1       101.1       101.1       101.0       100.9       100.9       100.8       100.7       100.5       100.3    
        100.0    
  53    100.0       99.86       99.76       99.69       99.63       99.58       99.53       99.49       99.45       99.41    
        99.38       99.34       99.31       99.28       99.25       99.23       99.20       99.18       99.17       99.16    
        99.15       99.14       99.14       99.14       99.15       99.17       99.18       99.20       99.23       99.26    
        99.30       99.34       99.38       99.42       99.47       99.53       99.58       99.64       99.70       99.76    
        99.82       99.88       99.95       100.0       100.1       100.1       100.2       100.3       100.3       100.4    
        100.5       100.5       100.6       100.6       100.7       100.7       100.8       100.8       100.9       100.9    
        101.0       101.0       101.0       101.1       101.1       101.2       101.2       101.2       101.2       101.3    
        101.3       101.3       101.3       101.3       101.3       101.3       101.4       101.4       101.4       101.4    
        101.4       101.3       101.3       101.3       101.3       101.3       101.3       101.2       101.2       101.2    
        101.2       101.1       101.1       101.0       100.9       100.9       100.8       100.7       100.5       100.3    
        100.0    
  54    100.0       99.88       99.80       99.74       99.69       99.64       99.60       99.56       99.53       99.50    
        99.47       99.44       99.41       99.38       99.36       99.34       99.32       99.30       99.29       99.28    
[...]
        101.0       101.1       101.1       101.1       101.1       101.1       101.1       101.1       101.1       101.1    
        101.1       101.1       101.1       101.1       101.1       101.1       101.1       101.1       101.1       101.1    
        101.1       101.1       101.1       101.1       101.1       101.1       101.1       101.1       101.1       101.0    
        101.0       101.0       101.0       101.0       101.0       101.0       100.9       100.9       100.9       100.9    
        100.8       100.8       100.8       100.8       100.8       100.7       100.7       100.7       100.7       100.7    
        100.7    
  89    100.4       100.4       100.4       100.4       100.5       100.5       100.5       100.5       100.5       100.5    
        100.5       100.6       100.6       100.6       100.6       100.6       100.6       100.6       100.7       100.7    
        100.7       100.7       100.7       100.7       100.7       100.8       100.8       100.8       100.8       100.8    
        100.8       100.8       100.8       100.9       100.9       100.9       100.9       100.9       100.9       100.9    
        100.9       100.9       101.0       101.0       101.0       101.0       101.0       101.0       101.0       101.0    
        101.0       101.0       101.0       101.0       101.1       101.1       101.1       101.1       101.1       101.1    
        101.1       101.1       101.1       101.1       101.1       101.1       101.1       101.1       101.1       101.1    
        101.1       101.1       101.1       101.1       101.1       101.1       101.1       101.0       101.0       101.0    
        101.0       101.0       101.0       101.0       100.9       100.9       100.9       100.9       100.9       100.9    
        100.8       100.8       100.8       100.8       100.7       100.7       100.7       100.7       100.7       100.7    
        100.7    
  90    100.4       100.4       100.4       100.4       100.5       100.5       100.5       100.5       100.5       100.5    
        100.5       100.5       100.6       100.6       100.6       100.6       100.6       100.6       100.7       100.7    
        100.7       100.7       100.7       100.7       100.7       100.7       100.8       100.8       100.8       100.8    
        100.8       100.8       100.8       100.8       100.9       100.9       100.9       100.9       100.9       100.9    
        100.9       100.9       100.9       100.9       101.0       101.0       101.0       101.0       101.0       101.0    
        101.0       101.0       101.0       101.0       101.0       101.0       101.0       101.1       101.1       101.1    
        101.1       101.1       101.1       101.1       101.1       101.1       101.1       101.1       101.1       101.1    
        101.1       101.1       101.1       101.0       101.0       101.0       101.0       101.0       101.0       101.0    
        101.0       101.0       101.0       100.9       100.9       100.9       100.9       100.9       100.9       100.8    
        100.8       100.8       100.8       100.8       100.7       100.7       100.7       100.7       100.7       100.7    
        100.7    
  91    100.4       100.4       100.4       100.4       100.4       100.5       100.5       100.5       100.5       100.5    
        100.5       100.5       100.6       100.6       100.6       100.6       100.6       100.6       100.6       100.7    
        100.7       100.7       100.7       100.7       100.7       100.7       100.7       100.8       100.8       100.8    
        100.8       100.8       100.8       100.8       100.8       100.8       100.9       100.9       100.9       100.9    
        100.9       100.9       100.9       100.9       100.9       100.9       101.0       101.0       101.0       101.0    
        101.0       101.0       101.0       101.0       101.0       101.0       101.0       101.0       101.0       101.0    
        101.0       101.0       101.0       101.0       101.0       101.0       101.0       101.0       101.0       101.0    
        101.0       101.0       101.0       101.0       101.0       101.0       101.0       101.0       101.0       101.0    
        101.0       100.9       100.9       100.9       100.9       100.9       100.9       100.8       100.8       100.8    
        100.8       100.8       100.8       100.7       100.7       100.7       100.7       100.7       100.7       100.7    
        100.6    
  92    100.4       100.4       100.4       100.4       100.4       100.5       100.5       100.5       100.5       100.5    
        100.5       100.5       100.6       100.6       100.6       100.6       100.6       100.6       100.6       100.6    
        100.7       100.7       100.7       100.7       100.7       100.7       100.7       100.7       100.8       100.8    
        100.8       100.8       100.8       100.8       100.8       100.8       100.8       100.9       100.9       100.9    
        100.9       100.9       100.9       100.9       100.9       100.9       100.9       100.9       100.9       101.0    
        101.0       101.0       101.0       101.0       101.0       101.0       101.0       101.0       101.0       101.0    
        101.0       101.0       101.0       101.0       101.0       101.0       101.0       101.0       101.0       101.0    
        101.0       101.0       101.0       101.0       101.0       101.0       101.0       101.0       101.0       100.9    
        100.9       100.9       100.9       100.9       100.9       100.9       100.8       100.8       100.8       100.8    
        100.8       100.8       100.7       100.7       100.7       100.7       100.7       100.7       100.6       100.6    
        100.6    
  93    100.4       100.4       100.4       100.4       100.4       100.4       100.5       100.5       100.5       100.5    
        100.5       100.5       100.5       100.6       100.6       100.6       100.6       100.6       100.6       100.6    
        100.7       100.7       100.7       100.7       100.7       100.7       100.7       100.7       100.7       100.8    
        100.8       100.8       100.8       100.8       100.8       100.8       100.8       100.8       100.8       100.9    
        100.9       100.9       100.9       100.9       100.9       100.9       100.9       100.9       100.9       100.9    
        100.9       100.9       101.0       101.0       101.0       101.0       101.0       101.0       101.0       101.0    
        101.0       101.0       101.0       101.0       101.0       101.0       101.0       101.0       101.0       101.0    
        101.0       101.0       101.0       101.0       101.0       101.0       100.9       100.9       100.9       100.9    
        100.9       100.9       100.9       100.9       100.9       100.8       100.8       100.8       100.8       100.8    
        100.8       100.7       100.7       100.7       100.7       100.7       100.7       100.6       100.6       100.6    
        100.6    
  94    100.4       100.4       100.4       100.4       100.4       100.4       100.5       100.5       100.5       100.5    
        100.5       100.5       100.5       100.5       100.6       100.6       100.6       100.6       100.6       100.6    
        100.6       100.7       100.7       100.7       100.7       100.7       100.7       100.7       100.7       100.7    
        100.8       100.8       100.8       100.8       100.8       100.8       100.8       100.8       100.8       100.8    
        100.8       100.9       100.9       100.9       100.9       100.9       100.9       100.9       100.9       100.9    
        100.9       100.9       100.9       100.9       100.9       100.9       101.0       101.0       101.0       101.0    
        101.0       101.0       101.0       101.0       101.0       101.0       101.0       101.0       101.0       101.0    
        101.0       101.0       101.0       100.9       100.9       100.9       100.9       100.9       100.9       100.9    
        100.9       100.9       100.9       100.8       100.8       100.8       100.8       100.8       100.8       100.8    
        100.7       100.7       100.7       100.7       100.7       100.7       100.6       100.6       100.6       100.6    
        100.6    
  95    100.4       100.4       100.4       100.4       100.4       100.4       100.4       100.5       100.5       100.5    
        100.5       100.5       100.5       100.5       100.6       100.6       100.6       100.6       100.6       100.6    
        100.6       100.6       100.7       100.7       100.7       100.7       100.7       100.7       100.7       100.7    
        100.7       100.7       100.8       100.8       100.8       100.8       100.8       100.8       100.8       100.8    
        100.8       100.8       100.8       100.8       100.9       100.9       100.9       100.9       100.9       100.9    
        100.9       100.9       100.9       100.9       100.9       100.9       100.9       100.9       100.9       100.9    
        100.9       100.9       100.9       100.9       100.9       100.9       100.9       100.9       100.9       100.9    
        100.9       100.9       100.9       100.9       100.9       100.9       100.9       100.9       100.9       100.9    
        100.9       100.9       100.8       100.8       100.8       100.8       100.8       100.8       100.7       100.7    
        100.7       100.7       100.7       100.7       100.6       100.6       100.6       100.6       100.6       100.6    
        100.6    
  96    100.4       100.4       100.4       100.4       100.4       100.4       100.4       100.5       100.5       100.5    
        100.5       100.5       100.5       100.5       100.5       100.6       100.6       100.6       100.6       100.6    
        100.6       100.6       100.6       100.6       100.7       100.7       100.7       100.7       100.7       100.7    
        100.7       100.7       100.7       100.7       100.8       100.8       100.8       100.8       100.8       100.8    
        100.8       100.8       100.8       100.8       100.8       100.8       100.9       100.9       100.9       100.9    
        100.9       100.9       100.9       100.9       100.9       100.9       100.9       100.9       100.9       100.9    
        100.9       100.9       100.9       100.9       100.9       100.9       100.9       100.9       100.9       100.9    
        100.9       100.9       100.9       100.9       100.9       100.9       100.9       100.9       100.9       100.9    
        100.8       100.8       100.8       100.8       100.8       100.8       100.8       100.7       100.7       100.7    
        100.7       100.7       100.7       100.7       100.6       100.6       100.6       100.6       100.6       100.6    
        100.6    
  97    100.4       100.4       100.4       100.4       100.4       100.4       100.4       100.4       100.5       100.5    
        100.5       100.5       100.5       100.5       100.5       100.5       100.6       100.6       100.6       100.6    
        100.6       100.6       100.6       100.6       100.6       100.7       100.7       100.7       100.7       100.7    
        100.7       100.7       100.7       100.7       100.7       100.8       100.8       100.8       100.8       100.8    
        100.8       100.8       100.8       100.8       100.8       100.8       100.8       100.8       100.8       100.9    
        100.9       100.9       100.9       100.9       100.9       100.9       100.9       100.9       100.9       100.9    
        100.9       100.9       100.9       100.9       100.9       100.9       100.9       100.9       100.9       100.9    
        100.9       100.9       100.9       100.9       100.9       100.9       100.9       100.8       100.8       100.8    
        100.8       100.8       100.8       100.8       100.8       100.8       100.7       100.7       100.7       100.7    
        100.7       100.7       100.7       100.6       100.6       100.6       100.6       100.6       100.6       100.6    
        100.6    
  98    100.4       100.4       100.4       100.4       100.4       100.4       100.4       100.4       100.5       100.5    
        100.5       100.5       100.5       100.5       100.5       100.5       100.5       100.6       100.6       100.6    
        100.6       100.6       100.6       100.6       100.6       100.6       100.7       100.7       100.7       100.7    
        100.7       100.7       100.7       100.7       100.7       100.7       100.7       100.8       100.8       100.8    
        100.8       100.8       100.8       100.8       100.8       100.8       100.8       100.8       100.8       100.8    
        100.8       100.8       100.9       100.9       100.9       100.9       100.9       100.9       100.9       100.9    
        100.9       100.9       100.9       100.9       100.9       100.9       100.9       100.9       100.9       100.9    
        100.9       100.9       100.9       100.9       100.9       100.8       100.8       100.8       100.8       100.8    
        100.8       100.8       100.8       100.8       100.8       100.7       100.7       100.7       100.7       100.7    
        100.7       100.7       100.6       100.6       100.6       100.6       100.6       100.6       100.6       100.6    
        100.6    
  99    100.4       100.4       100.4       100.4       100.4       100.4       100.4       100.4       100.4       100.5    
        100.5       100.5       100.5       100.5       100.5       100.5       100.5       100.6       100.6       100.6    
        100.6       100.6       100.6       100.6       100.6       100.6       100.6       100.7       100.7       100.7    
        100.7       100.7       100.7       100.7       100.7       100.7       100.7       100.7       100.8       100.8    
        100.8       100.8       100.8       100.8       100.8       100.8       100.8       100.8       100.8       100.8    
        100.8       100.8       100.8       100.8       100.8       100.9       100.9       100.9       100.9       100.9    
        100.9       100.9       100.9       100.9       100.9       100.9       100.9       100.9       100.9       100.9    
        100.9       100.9       100.9       100.8       100.8       100.8       100.8       100.8       100.8       100.8    
        100.8       100.8       100.8       100.8       100.7       100.7       100.7       100.7       100.7       100.7    
        100.7       100.6       100.6       100.6       100.6       100.6       100.6       100.6       100.6       100.6    
        100.6    
 100    100.4       100.4       100.4       100.4       100.4       100.4       100.4       100.4       100.4       100.5    
        100.5       100.5       100.5       100.5       100.5       100.5       100.5       100.5       100.6       100.6    
        100.6       100.6       100.6       100.6       100.6       100.6       100.6       100.7       100.7       100.7    
        100.7       100.7       100.7       100.7       100.7       100.7       100.7       100.7       100.7       100.8    
        100.8       100.8       100.8       100.8       100.8       100.8       100.8       100.8       100.8       100.8    
        100.8       100.8       100.8       100.8       100.8       100.8       100.8       100.9       100.9       100.9    
        100.9       100.9       100.9       100.9       100.9       100.9       100.9       100.9       100.9       100.9    
        100.8       100.8       100.8       100.8       100.8       100.8       100.8       100.8       100.8       100.8    
        100.8       100.8       100.8       100.7       100.7       100.7       100.7       100.7       100.7       100.7    
        100.7       100.6       100.6       100.6       100.6       100.6       100.6       100.6       100.6       100.6    
        100.5    
 101    100.4       100.4       100.4       100.4       100.4       100.4       100.4       100.4       100.4       100.5    
        100.5       100.5       100.5       100.5       100.5       100.5       100.5       100.5       100.6       100.6    
        100.6       100.6       100.6       100.6       100.6       100.6       100.6       100.6       100.7       100.7    
        100.7       100.7       100.7       100.7       100.7       100.7       100.7       100.7       100.7       100.7    
        100.8       100.8       100.8       100.8       100.8       100.8       100.8       100.8       100.8       100.8    
        100.8       100.8       100.8       100.8       100.8       100.8       100.8       100.8       100.8       100.9    
        100.9       100.9       100.9       100.9       100.9       100.9       100.9       100.9       100.9       100.8    
        100.8       100.8       100.8       100.8       100.8       100.8       100.8       100.8       100.8       100.8    
        100.8       100.8       100.8       100.7       100.7       100.7       100.7       100.7       100.7       100.7    
        100.6       100.6       100.6       100.6       100.6       100.6       100.6       100.6       100.6       100.5    
        100.5    

 HEAD WILL BE SAVED ON UNIT 1016 AT END OF TIME STEP    1, STRESS PERIOD    1


  VOLUME BUDGET FOR ENTIRE MODEL AT END OF TIME STEP    1, STRESS PERIOD   1
  ---------------------------------------------------------------------------------------------------

     CUMULATIVE VOLUME      L**3       RATES FOR THIS TIME STEP      L**3/T          PACKAGE NAME    
     ------------------                 ------------------------                     ----------------

           IN:                                      IN:
           ---                                      ---
              STO-SS =          65.5163                STO-SS =          65.5163     STORAGE                          
              STO-SY =           0.0000                STO-SY =           0.0000     STORAGE                          
                 WEL =           0.0000                   WEL =           0.0000     WEL_0                            
                RCHA =        1529.6052                  RCHA =        1529.6052     RCH                              
                 CHD =         487.9112                   CHD =         487.9112     CHD_0                            

            TOTAL IN =        2083.0327              TOTAL IN =        2083.0327

          OUT:                                     OUT:
          ----                                     ----
              STO-SS =          42.0703                STO-SS =          42.0703     STORAGE                          
              STO-SY =           0.0000                STO-SY =           0.0000     STORAGE                          
                 WEL =        1491.8012                   WEL =        1491.8012     WEL_0                            
                RCHA =           0.0000                  RCHA =           0.0000     RCH                              
                 CHD =         549.0368                   CHD =         549.0368     CHD_0                            

           TOTAL OUT =        2082.9082             TOTAL OUT =        2082.9082

            IN - OUT =           0.1245              IN - OUT =           0.1245

 PERCENT DISCREPANCY =           0.01     PERCENT DISCREPANCY =           0.01




         TIME SUMMARY AT END OF TIME STEP    1 IN STRESS PERIOD    1
                    SECONDS     MINUTES      HOURS       DAYS        YEARS
                    -----------------------------------------------------------
   TIME STEP LENGTH  86400.      1440.0      24.000      1.0000     2.73785E-03
 STRESS PERIOD TIME  86400.      1440.0      24.000      1.0000     2.73785E-03
         TOTAL TIME  86400.      1440.0      24.000      1.0000     2.73785E-03


end timestep

