                                   MODFLOW 6
                U.S. GEOLOGICAL SURVEY MODULAR HYDROLOGIC MODEL
                          GROUNDWATER FLOW MODEL (GWF)
                        VERSION 6.4.1 Release 12/09/2022

   MODFLOW 6 compiled Dec 09 2022 18:18:37 with Intel(R) Fortran Intel(R) 64
   Compiler Classic for applications running on Intel(R) 64, Version 2021.7.0
                             Build 20220726_000000

This software has been approved for release by the U.S. Geological 
Survey (USGS). Although the software has been subjected to rigorous 
review, the USGS reserves the right to update the software as needed 
pursuant to further analysis and review. No warranty, expressed or 
implied, is made by the USGS or the U.S. Government as to the 
functionality of the software and related material nor shall the 
fact of release constitute any such warranty. Furthermore, the 
software is released on condition that neither the USGS nor the U.S. 
Government shall be held liable for any damages resulting from its 
authorized or unauthorized use. Also refer to the USGS Water 
Resources Software User Rights Notice for complete use, copyright, 
and distribution information.


As a work of the United States Government, this USGS product is 
in the public domain within the United States. You can copy, 
modify, distribute, and perform the work, even for commercial 
purposes, all without asking permission. Additionally, USGS 
waives copyright and related rights in the work worldwide 
through CC0 1.0 Universal Public Domain Dedication 
(https://creativecommons.org/publicdomain/zero/1.0/).

The following GNU Lesser General Public License (LGPL) libraries
are used in this USGS product:

    SPARSKIT version 2.0
      ilut, luson, and qsplit 
      (https://www-users.cse.umn.edu/~saad/software/SPARSKIT/)

    RCM - Reverse Cuthill McKee Ordering
      (https://people.math.sc.edu/Burkardt/f_src/rcm/rcm.html)

    BLAS - Basic Linear Algebra Subprograms Level 1
      (https://people.math.sc.edu/Burkardt/f_src/blas1_d/blas1_d.html)

    SPARSEKIT - Sparse Matrix Utility Package
      amux, dperm, dvperm, rperm, and cperm
      (https://people.sc.fsu.edu/~jburkardt/f77_src/sparsekit/sparsekit.html)

The following BSD-3 License libraries are used in this USGS product:

    Modern Fortran DAG Library
      Copyright (c) 2018, Jacob Williams
      All rights reserved.
      (https://github.com/jacobwilliams/daglib)

MODFLOW 6 compiler options: /Isrc\libmf6core.a.p /Isrc /I..\src
/Isrc\libmf6_external.a.p /MTd /nologo /warn:general /warn:truncated_source
/stand:f08 /Zi /traceback /O2 /fpe:0 /heap-arrays:0 /traceback /fpp
/Qdiag-disable:7416 /Qdiag-disable:7025 /Qdiag-disable:5268
/Fdsrc\libmf6core.a.p\Utilities_compilerversion.F90.pdb
/module:src\libmf6core.a.p
/Fosrc/libmf6core.a.p/Utilities_compilerversion.F90.obj /c

System command used to initiate simulation:
"C:\Users\ksil8584\OneDrive - The University of Sydney (Staff)\Documents\Modflow\mf6.4.1\bin\mf6.exe"

MODFLOW was compiled using uniform precision.

Real Variables
  KIND: 8
  TINY (smallest non-zero value):    2.225074-308
  HUGE (largest value):    1.797693+308
  PRECISION: 15
  SIZE IN BITS: 64

Integer Variables
  KIND: 4
  HUGE (largest value): 2147483647
  SIZE IN BITS: 32

Long Integer Variables
  KIND: 8
  HUGE (largest value): 9223372036854775807
  SIZE IN BITS: 64

Logical Variables
  KIND: 4
  SIZE IN BITS: 32
 

 OPENED FloPy_ModelS_T1b.dis
 FILE TYPE:DIS6                   UNIT 1005   STATUS:OLD                 
 FORMAT:FORMATTED              ACCESS:SEQUENTIAL          
 ACTION:READ                


 OPENED FloPy_ModelS_T1b.ic
 FILE TYPE:IC6                    UNIT 1006   STATUS:OLD                 
 FORMAT:FORMATTED              ACCESS:SEQUENTIAL          
 ACTION:READ                


 OPENED FloPy_ModelS_T1b.npf
 FILE TYPE:NPF6                   UNIT 1007   STATUS:OLD                 
 FORMAT:FORMATTED              ACCESS:SEQUENTIAL          
 ACTION:READ                


 OPENED FloPy_ModelS_T1b.sto
 FILE TYPE:STO6                   UNIT 1008   STATUS:OLD                 
 FORMAT:FORMATTED              ACCESS:SEQUENTIAL          
 ACTION:READ                


 OPENED FloPy_ModelS_T1b.chd
 FILE TYPE:CHD6                   UNIT 1009   STATUS:OLD                 
 FORMAT:FORMATTED              ACCESS:SEQUENTIAL          
 ACTION:READ                


 OPENED FloPy_ModelS_T1b.oc
 FILE TYPE:OC6                    UNIT 1010   STATUS:OLD                 
 FORMAT:FORMATTED              ACCESS:SEQUENTIAL          
 ACTION:READ                


 OPENED FloPy_ModelS_T1b.wel
 FILE TYPE:WEL6                   UNIT 1011   STATUS:OLD                 
 FORMAT:FORMATTED              ACCESS:SEQUENTIAL          
 ACTION:READ                


 OPENED FloPy_ModelS_T1b.rcha
 FILE TYPE:RCH6                   UNIT 1012   STATUS:OLD                 
 FORMAT:FORMATTED              ACCESS:SEQUENTIAL          
 ACTION:READ                

 NAMEFILE OPTIONS:
    FLOWS WILL BE SAVED TO BUDGET FILE SPECIFIED IN OUTPUT CONTROL
    NEWTON-RAPHSON method enabled for the model.
    NEWTON-RAPHSON UNDER-RELAXATION based on the bottom elevation of the model will be applied to the model.

 DIS -- STRUCTURED GRID DISCRETIZATION PACKAGE, VERSION 2 : 3/27/2014 - INPUT READ FROM UNIT 1005

 Loading input for FLOPY_MODELS_T1B/DIS
 # File generated by Flopy version 3.3.6 on 06/26/2023 at 09:22:26.
   NLAY = 10
   NROW = 101
   NCOL = 101
   DELR = 4.000000000000000
   DELC = 4.000000000000000
   TOP = .000000000000000
   BOTM = variable 3D double precision array ranging from -50.00000000000000 to -5.000000000000000
 Loading input complete...


 NPF -- NODE PROPERTY FLOW PACKAGE, VERSION 1, 3/30/2015 INPUT READ FROM UNIT 1007

 Loading input for FLOPY_MODELS_T1B/NPF
 # File generated by Flopy version 3.3.6 on 06/26/2023 at 09:22:26.
   ICELLTYPE = 1
   K = 1.000000000000000
 Loading input complete...

 Setting Discretization Options
 End Setting Discretization Options

 Setting Discretization Dimensions
    NLAY = 10
    NROW = 101
    NCOL = 101
 End Setting Discretization Dimensions

 Setting Discretization Griddata
    DELR set from input file
    DELC set from input file
    TOP set from input file
    BOTM set from input file
 End Setting Discretization Griddata

 Setting NPF Options
 End Setting NPF Options

 Setting NPF Griddata
    ICELLTYPE set from input file
    K set from input file
    K33 not provided.  Setting K33 = K.
    K22 not provided.  Setting K22 = K.
 End Setting NPF Griddata


 WEL   -- WEL PACKAGE, VERSION 8, 2/22/2014 INPUT READ FROM UNIT 1011
 # File generated by Flopy version 3.3.6 on 06/26/2023 at 09:22:26.

 PROCESSING WEL OPTIONS
 END OF WEL OPTIONS

 PROCESSING WEL DIMENSIONS
    MAXBOUND =       1
 END OF WEL DIMENSIONS

 RCH   -- RCH PACKAGE, VERSION 8, 2/22/2014 INPUT READ FROM UNIT 1012
 # File generated by Flopy version 3.3.6 on 06/26/2023 at 09:22:26.

 PROCESSING RCH OPTIONS
    RECHARGE INPUT WILL BE READ AS ARRAY(S).
 END OF RCHA OPTIONS

 CHD   -- CHD PACKAGE, VERSION 8, 2/22/2014 INPUT READ FROM UNIT 1009
 # File generated by Flopy version 3.3.6 on 06/26/2023 at 09:22:26.

 PROCESSING CHD OPTIONS
 END OF CHD OPTIONS

 PROCESSING CHD DIMENSIONS
    MAXBOUND =     400
 END OF CHD DIMENSIONS

 IC -- INITIAL CONDITIONS PACKAGE, VERSION 8, 3/28/2015 INPUT READ FROM UNIT 1006
 # File generated by Flopy version 3.3.6 on 06/26/2023 at 09:22:26.
 PROCESSING GRIDDATA
 END PROCESSING GRIDDATA

 STO -- STORAGE PACKAGE, VERSION 1, 5/19/2014 INPUT READ FROM UNIT 1008


 # File generated by Flopy version 3.3.6 on 06/26/2023 at 09:22:26.
 PROCESSING STORAGE OPTIONS
 END OF STORAGE OPTIONS
 PROCESSING GRIDDATA

                 ICONVERT = 1

         SPECIFIC STORAGE =  0.1000000E-04

           SPECIFIC YIELD =  0.1500000    
 END PROCESSING GRIDDATA
    BINARY GRID INFORMATION WILL BE WRITTEN TO:
      UNIT NUMBER: 1014
      FILE NAME: C:\Users\ksil8584\OneDrive - The University of Sydney (Staff)\Documents\Modflow\FloPy models\FP_ModelS_1b\output_q_800-1200_r_005-01\FloPy_ModelS_T1b.dis.grb

 OPENED C:\Users\ksil8584\OneDrive - The University of Sydney (Staff)\Documents\Modflow\FloPy models\FP_ModelS_1b\output_q_800-1200_r_005-01\FloPy_ModelS_T1b.dis.grb
 FILE TYPE:DATA(BINARY)   UNIT 1014   STATUS:REPLACE             
 FORMAT:UNFORMATTED            ACCESS:STREAM              
 ACTION:READWRITE           

      THE LAST TIME STEP WILL BE PRINTED
      THE LAST TIME STEP WILL BE PRINTED
 # File generated by Flopy version 3.3.6 on 06/26/2023 at 09:22:26.

 PROCESSING OC OPTIONS

    BUDGET INFORMATION WILL BE WRITTEN TO:
      UNIT NUMBER: 1015
      FILE NAME: FloPy_ModelS_T1b.cbb

 OPENED FloPy_ModelS_T1b.cbb
 FILE TYPE:DATA(BINARY)   UNIT 1015   STATUS:REPLACE             
 FORMAT:UNFORMATTED            ACCESS:STREAM              
 ACTION:READWRITE           

    HEAD INFORMATION WILL BE WRITTEN TO:
      UNIT NUMBER: 1016
      FILE NAME: FloPy_ModelS_T1b.hds

 OPENED FloPy_ModelS_T1b.hds
 FILE TYPE:DATA(BINARY)   UNIT 1016   STATUS:REPLACE             
 FORMAT:UNFORMATTED            ACCESS:STREAM              
 ACTION:READWRITE           

 END OF OC OPTIONS

start timestep kper="1" kstp="1" mode="normal"


 BEGIN READING OUTPUT CONTROL FOR STRESS PERIOD 1
      ALL TIME STEPS WILL BE SAVED
      ALL TIME STEPS WILL BE SAVED
      THE LAST TIME STEP WILL BE PRINTED

 END READING OUTPUT CONTROL FOR STRESS PERIOD 1


 STRESS PERIOD 1 IS TRANSIENT


                 RECHARGE =  0.9754140E-02
 UBDSV1 SAVING           STO-SS ON UNIT   1015 AT TIME STEP      1, STRESS PERIOD      1
 UBDSV1 SAVING           STO-SY ON UNIT   1015 AT TIME STEP      1, STRESS PERIOD      1
 UBDSV1 SAVING     FLOW-JA-FACE ON UNIT   1015 AT TIME STEP      1, STRESS PERIOD      1
 UBDSV06 SAVING              WEL IN MODEL FLOPY_MODELS_T1B PACKAGE FLOPY_MODELS_T1BCONNECTED TO MODEL FLOPY_MODELS_T1B PACKAGE WEL_0            ON UNIT   1015 AT TIME STEP      1, STRESS PERIOD      1
 UBDSV06 SAVING             RCHA IN MODEL FLOPY_MODELS_T1B PACKAGE FLOPY_MODELS_T1BCONNECTED TO MODEL FLOPY_MODELS_T1B PACKAGE RCH              ON UNIT   1015 AT TIME STEP      1, STRESS PERIOD      1
 UBDSV06 SAVING              CHD IN MODEL FLOPY_MODELS_T1B PACKAGE FLOPY_MODELS_T1BCONNECTED TO MODEL FLOPY_MODELS_T1B PACKAGE CHD_0            ON UNIT   1015 AT TIME STEP      1, STRESS PERIOD      1
1
  HEAD IN LAYER   1 AT END OF TIME STEP   1 IN STRESS PERIOD    1
  ---------------------------------------------------------------------------

            1           2           3           4           5           6           7           8           9          10
           11          12          13          14          15          16          17          18          19          20
           21          22          23          24          25          26          27          28          29          30
           31          32          33          34          35          36          37          38          39          40
           41          42          43          44          45          46          47          48          49          50
           51          52          53          54          55          56          57          58          59          60
           61          62          63          64          65          66          67          68          69          70
           71          72          73          74          75          76          77          78          79          80
           81          82          83          84          85          86          87          88          89          90
           91          92          93          94          95          96          97          98          99         100
          101
 ........................................................................................................................
   1    100.0       100.0       100.0       100.0       100.0       100.0       100.0       100.0       100.0       100.0    
        100.0       100.0       100.0       100.0       100.0       100.0       100.0       100.0       100.0       100.0    
        100.0       100.0       100.0       100.0       100.0       100.0       100.0       100.0       100.0       100.0    
        100.0       100.0       100.0       100.0       100.0       100.0       100.0       100.0       100.0       100.0    
        100.0       100.0       100.0       100.0       100.0       100.0       100.0       100.0       100.0       100.0    
        100.0       100.0       100.0       100.0       100.0       100.0       100.0       100.0       100.0       100.0    
        100.0       100.0       100.0       100.0       100.0       100.0       100.0       100.0       100.0       100.0    
        100.0       100.0       100.0       100.0       100.0       100.0       100.0       100.0       100.0       100.0    
        100.0       100.0       100.0       100.0       100.0       100.0       100.0       100.0       100.0       100.0    
        100.0       100.0       100.0       100.0       100.0       100.0       100.0       100.0       100.0       100.0    
        100.0    
   2    100.0       99.90       99.84       99.81       99.78       99.75       99.73       99.71       99.69       99.68    
        99.66       99.64       99.62       99.61       99.59       99.58       99.56       99.55       99.54       99.53    
        99.52       99.51       99.51       99.50       99.50       99.50       99.51       99.51       99.52       99.53    
        99.54       99.56       99.57       99.59       99.61       99.62       99.64       99.67       99.69       99.71    
        99.73       99.75       99.78       99.80       99.82       99.84       99.86       99.88       99.91       99.93    
        99.94       99.96       99.98      100.00       100.0       100.0       100.0       100.1       100.1       100.1    
        100.1       100.1       100.1       100.1       100.1       100.2       100.2       100.2       100.2       100.2    
        100.2       100.2       100.2       100.2       100.2       100.2       100.2       100.2       100.2       100.2    
        100.2       100.2       100.2       100.2       100.2       100.2       100.2       100.2       100.2       100.2    
        100.2       100.2       100.2       100.2       100.2       100.2       100.2       100.2       100.1       100.1    
        100.0    
   3    100.0       99.84       99.75       99.69       99.64       99.60       99.56       99.53       99.49       99.46    
        99.43       99.40       99.37       99.34       99.32       99.29       99.27       99.25       99.23       99.21    
        99.20       99.18       99.18       99.17       99.17       99.17       99.18       99.19       99.20       99.22    
        99.24       99.26       99.28       99.31       99.34       99.37       99.41       99.44       99.48       99.51    
        99.55       99.59       99.63       99.66       99.70       99.74       99.77       99.81       99.84       99.87    
        99.91       99.94       99.97      100.00       100.0       100.1       100.1       100.1       100.1       100.1    
        100.2       100.2       100.2       100.2       100.2       100.3       100.3       100.3       100.3       100.3    
        100.3       100.3       100.3       100.4       100.4       100.4       100.4       100.4       100.4       100.4    
        100.4       100.4       100.4       100.4       100.4       100.4       100.4       100.4       100.4       100.4    
        100.4       100.3       100.3       100.3       100.3       100.3       100.3       100.2       100.2       100.1    
        100.0    
   4    100.0       99.81       99.69       99.60       99.54       99.48       99.43       99.39       99.34       99.30    
        99.26       99.22       99.19       99.15       99.11       99.08       99.05       99.02       98.99       98.97    
        98.95       98.94       98.92       98.92       98.92       98.92       98.93       98.94       98.96       98.98    
        99.00       99.03       99.07       99.10       99.14       99.18       99.23       99.27       99.32       99.37    
        99.42       99.46       99.51       99.56       99.61       99.66       99.70       99.75       99.79       99.83    
        99.88       99.92       99.95       99.99       100.0       100.1       100.1       100.1       100.2       100.2    
        100.2       100.2       100.3       100.3       100.3       100.3       100.3       100.4       100.4       100.4    
        100.4       100.4       100.4       100.4       100.5       100.5       100.5       100.5       100.5       100.5    
        100.5       100.5       100.5       100.5       100.5       100.5       100.5       100.5       100.5       100.5    
        100.5       100.4       100.4       100.4       100.4       100.4       100.3       100.3       100.2       100.2    
        100.0    
   5    100.0       99.78       99.64       99.54       99.46       99.39       99.33       99.28       99.22       99.17    
        99.12       99.08       99.03       98.99       98.94       98.90       98.86       98.83       98.80       98.77    
        98.75       98.73       98.71       98.71       98.70       98.71       98.71       98.73       98.75       98.78    
        98.81       98.84       98.88       98.93       98.97       99.02       99.08       99.13       99.19       99.25    
        99.30       99.36       99.42       99.48       99.53       99.59       99.64       99.70       99.75       99.80    
        99.85       99.90       99.94       99.99       100.0       100.1       100.1       100.1       100.2       100.2    
        100.2       100.3       100.3       100.3       100.4       100.4       100.4       100.4       100.4       100.5    
        100.5       100.5       100.5       100.5       100.5       100.5       100.6       100.6       100.6       100.6    
        100.6       100.6       100.6       100.6       100.6       100.6       100.6       100.6       100.5       100.5    
        100.5       100.5       100.5       100.5       100.5       100.4       100.4       100.3       100.3       100.2    
        100.0    
   6    100.0       99.75       99.60       99.48       99.39       99.31       99.24       99.18       99.12       99.06    
        99.00       98.95       98.90       98.84       98.79       98.75       98.70       98.66       98.62       98.59    
        98.56       98.54       98.52       98.51       98.51       98.51       98.52       98.54       98.56       98.59    
        98.63       98.67       98.72       98.77       98.82       98.88       98.94       99.01       99.07       99.14    
        99.20       99.27       99.33       99.40       99.46       99.53       99.59       99.65       99.71       99.77    
        99.82       99.88       99.93       99.98       100.0       100.1       100.1       100.2       100.2       100.2    
        100.3       100.3       100.3       100.4       100.4       100.4       100.5       100.5       100.5       100.5    
        100.5       100.6       100.6       100.6       100.6       100.6       100.6       100.6       100.6       100.6    
        100.6       100.6       100.6       100.6       100.6       100.6       100.6       100.6       100.6       100.6    
        100.6       100.6       100.6       100.5       100.5       100.5       100.4       100.4       100.3       100.2    
        100.0    
   7    100.0       99.73       99.56       99.43       99.33       99.24       99.17       99.09       99.03       98.96    
        98.90       98.83       98.77       98.71       98.66       98.60       98.55       98.50       98.46       98.42    
        98.39       98.36       98.34       98.33       98.33       98.33       98.34       98.36       98.39       98.42    
        98.46       98.51       98.56       98.62       98.68       98.75       98.82       98.89       98.96       99.03    
        99.11       99.18       99.26       99.33       99.40       99.47       99.54       99.61       99.67       99.74    
        99.80       99.86       99.92       99.97       100.0       100.1       100.1       100.2       100.2       100.3    
        100.3       100.3       100.4       100.4       100.4       100.5       100.5       100.5       100.5       100.6    
        100.6       100.6       100.6       100.6       100.6       100.7       100.7       100.7       100.7       100.7    
        100.7       100.7       100.7       100.7       100.7       100.7       100.7       100.7       100.7       100.7    
        100.6       100.6       100.6       100.6       100.5       100.5       100.5       100.4       100.3       100.2    
        100.0    
   8    100.0       99.71       99.53       99.39       99.28       99.18       99.09       99.01       98.94       98.86    
        98.79       98.72       98.65       98.59       98.52       98.46       98.40       98.35       98.30       98.26    
        98.22       98.19       98.17       98.15       98.15       98.15       98.16       98.19       98.22       98.25    
        98.30       98.35       98.41       98.48       98.55       98.62       98.70       98.78       98.86       98.94    
        99.02       99.10       99.18       99.26       99.34       99.42       99.50       99.57       99.64       99.71    
        99.78       99.84       99.90       99.96       100.0       100.1       100.1       100.2       100.2       100.3    
        100.3       100.4       100.4       100.4       100.5       100.5       100.5       100.5       100.6       100.6    
        100.6       100.6       100.7       100.7       100.7       100.7       100.7       100.7       100.7       100.7    
        100.7       100.7       100.7       100.7       100.7       100.7       100.7       100.7       100.7       100.7    
        100.7       100.7       100.6       100.6       100.6       100.5       100.5       100.4       100.3       100.2    
        100.0    
   9    100.0       99.69       99.49       99.34       99.22       99.12       99.03       98.94       98.85       98.77    
        98.69       98.62       98.54       98.47       98.39       98.33       98.26       98.20       98.14       98.09    
        98.05       98.02       97.99       97.97       97.97       97.97       97.98       98.01       98.04       98.08    
        98.14       98.20       98.26       98.33       98.41       98.49       98.58       98.66       98.75       98.84    
        98.93       99.02       99.11       99.20       99.28       99.37       99.45       99.53       99.61       99.68    
        99.75       99.82       99.89       99.95       100.0       100.1       100.1       100.2       100.2       100.3    
        100.3       100.4       100.4       100.4       100.5       100.5       100.6       100.6       100.6       100.6    
        100.7       100.7       100.7       100.7       100.7       100.7       100.8       100.8       100.8       100.8    
        100.8       100.8       100.8       100.8       100.8       100.8       100.8       100.8       100.7       100.7    
        100.7       100.7       100.7       100.6       100.6       100.6       100.5       100.4       100.3       100.2    
        100.0    
  10    100.0       99.68       99.46       99.30       99.17       99.06       98.96       98.86       98.77       98.68    
        98.60       98.51       98.43       98.35       98.27       98.19       98.12       98.05       97.98       97.93    
        97.88       97.84       97.81       97.79       97.78       97.79       97.80       97.83       97.86       97.91    
        97.97       98.04       98.11       98.19       98.27       98.37       98.46       98.55       98.65       98.75    
        98.85       98.94       99.04       99.14       99.23       99.32       99.41       99.49       99.57       99.65    
        99.73       99.81       99.88       99.94       100.0       100.1       100.1       100.2       100.2       100.3    
        100.3       100.4       100.4       100.5       100.5       100.5       100.6       100.6       100.6       100.7    
        100.7       100.7       100.7       100.7       100.8       100.8       100.8       100.8       100.8       100.8    
        100.8       100.8       100.8       100.8       100.8       100.8       100.8       100.8       100.8       100.8    
        100.7       100.7       100.7       100.7       100.6       100.6       100.5       100.5       100.4       100.2    
        100.0    
  11    100.0       99.66       99.43       99.26       99.12       99.00       98.90       98.79       98.69       98.60    
        98.50       98.41       98.32       98.23       98.14       98.05       97.97       97.89       97.82       97.76    
        97.71       97.66       97.63       97.60       97.59       97.60       97.61       97.64       97.68       97.74    
        97.80       97.87       97.95       98.04       98.14       98.24       98.34       98.44       98.55       98.66    
        98.76       98.87       98.97       99.07       99.17       99.27       99.36       99.46       99.54       99.63    
        99.71       99.79       99.86       99.94       100.0       100.1       100.1       100.2       100.2       100.3    
        100.4       100.4       100.4       100.5       100.5       100.6       100.6       100.6       100.7       100.7    
        100.7       100.7       100.8       100.8       100.8       100.8       100.8       100.8       100.8       100.8    
        100.8       100.9       100.9       100.9       100.8       100.8       100.8       100.8       100.8       100.8    
        100.8       100.8       100.7       100.7       100.7       100.6       100.5       100.5       100.4       100.2    
        100.0    
  12    100.0       99.64       99.40       99.22       99.08       98.95       98.83       98.72       98.62       98.51    
        98.41       98.31       98.21       98.11       98.01       97.92       97.83       97.74       97.66       97.59    
        97.53       97.48       97.44       97.41       97.40       97.40       97.42       97.45       97.49       97.55    
        97.62       97.70       97.80       97.89       98.00       98.11       98.22       98.33       98.45       98.56    
        98.68       98.79       98.90       99.01       99.12       99.22       99.32       99.42       99.51       99.60    
        99.69       99.77       99.85       99.93      100.00       100.1       100.1       100.2       100.3       100.3    
        100.4       100.4       100.5       100.5       100.5       100.6       100.6       100.7       100.7       100.7    
        100.7       100.8       100.8       100.8       100.8       100.8       100.9       100.9       100.9       100.9    
        100.9       100.9       100.9       100.9       100.9       100.9       100.9       100.9       100.8       100.8    
        100.8       100.8       100.7       100.7       100.7       100.6       100.6       100.5       100.4       100.2    
        100.0    
  13    100.0       99.62       99.37       99.19       99.03       98.90       98.77       98.65       98.54       98.43    
        98.32       98.21       98.10       97.99       97.88       97.78       97.68       97.58       97.49       97.41    
        97.34       97.28       97.24       97.21       97.19       97.20       97.21       97.25       97.30       97.36    
        97.44       97.53       97.63       97.74       97.86       97.98       98.10       98.22       98.35       98.47    
        98.60       98.72       98.84       98.95       99.07       99.18       99.28       99.38       99.48       99.58    
        99.67       99.76       99.84       99.92       99.99       100.1       100.1       100.2       100.3       100.3    
        100.4       100.4       100.5       100.5       100.6       100.6       100.6       100.7       100.7       100.7    
        100.8       100.8       100.8       100.8       100.8       100.9       100.9       100.9       100.9       100.9    
        100.9       100.9       100.9       100.9       100.9       100.9       100.9       100.9       100.9       100.8    
        100.8       100.8       100.8       100.7       100.7       100.6       100.6       100.5       100.4       100.2    
        100.0    
  14    100.0       99.61       99.34       99.15       98.99       98.84       98.71       98.59       98.47       98.35    
        98.23       98.11       97.99       97.87       97.75       97.64       97.53       97.42       97.32       97.23    
        97.15       97.09       97.04       97.00       96.98       96.98       97.00       97.04       97.10       97.17    
        97.26       97.36       97.47       97.59       97.71       97.84       97.98       98.11       98.25       98.38    
        98.51       98.64       98.77       98.90       99.02       99.13       99.24       99.35       99.46       99.55    
        99.65       99.74       99.83       99.91       99.99       100.1       100.1       100.2       100.3       100.3    
        100.4       100.4       100.5       100.5       100.6       100.6       100.7       100.7       100.7       100.8    
        100.8       100.8       100.8       100.9       100.9       100.9       100.9       100.9       100.9       100.9    
        100.9       100.9       100.9       100.9       100.9       100.9       100.9       100.9       100.9       100.9    
        100.8       100.8       100.8       100.8       100.7       100.7       100.6       100.5       100.4       100.2    
        100.0    
  15    100.0       99.59       99.32       99.11       98.94       98.79       98.66       98.52       98.39       98.27    
        98.14       98.01       97.88       97.75       97.63       97.50       97.38       97.26       97.15       97.05    
        96.96       96.89       96.83       96.79       96.76       96.77       96.79       96.83       96.89       96.97    
        97.07       97.18       97.30       97.43       97.57       97.71       97.86       98.00       98.15       98.29    
        98.43       98.57       98.71       98.84       98.97       99.09       99.21       99.32       99.43       99.53    
        99.63       99.73       99.82       99.90       99.98       100.1       100.1       100.2       100.3       100.3    
        100.4       100.4       100.5       100.5       100.6       100.6       100.7       100.7       100.7       100.8    
        100.8       100.8       100.9       100.9       100.9       100.9       100.9       100.9       101.0       101.0    
        101.0       101.0       101.0       101.0       101.0       100.9       100.9       100.9       100.9       100.9    
        100.9       100.8       100.8       100.8       100.7       100.7       100.6       100.5       100.4       100.3    
        100.0    
  16    100.0       99.58       99.29       99.08       98.90       98.75       98.60       98.46       98.33       98.19    
        98.05       97.92       97.78       97.64       97.50       97.36       97.23       97.10       96.98       96.86    
        96.76       96.68       96.61       96.57       96.54       96.54       96.56       96.61       96.68       96.77    
        96.87       97.00       97.13       97.27       97.42       97.58       97.74       97.89       98.05       98.21    
        98.36       98.50       98.65       98.79       98.92       99.05       99.17       99.29       99.40       99.51    
        99.62       99.71       99.81       99.90       99.98       100.1       100.1       100.2       100.3       100.3    
        100.4       100.5       100.5       100.6       100.6       100.7       100.7       100.7       100.8       100.8    
        100.8       100.9       100.9       100.9       100.9       100.9       101.0       101.0       101.0       101.0    
        101.0       101.0       101.0       101.0       101.0       101.0       101.0       100.9       100.9       100.9    
        100.9       100.9       100.8       100.8       100.7       100.7       100.6       100.5       100.4       100.3    
        100.0    
  17    100.0       99.56       99.27       99.05       98.86       98.70       98.55       98.40       98.26       98.12    
        97.97       97.83       97.68       97.53       97.38       97.23       97.08       96.94       96.80       96.68    
        96.57       96.47       96.40       96.34       96.31       96.31       96.34       96.39       96.46       96.56    
        96.68       96.82       96.96       97.12       97.28       97.45       97.62       97.79       97.96       98.12    
        98.28       98.44       98.59       98.74       98.88       99.01       99.14       99.26       99.38       99.49    
        99.60       99.70       99.80       99.89       99.98       100.1       100.1       100.2       100.3       100.4    
        100.4       100.5       100.5       100.6       100.6       100.7       100.7       100.8       100.8       100.8    
        100.9       100.9       100.9       100.9       100.9       101.0       101.0       101.0       101.0       101.0    
        101.0       101.0       101.0       101.0       101.0       101.0       101.0       101.0       101.0       100.9    
        100.9       100.9       100.8       100.8       100.8       100.7       100.6       100.5       100.4       100.3    
        100.0    
  18    100.0       99.55       99.25       99.02       98.83       98.66       98.50       98.35       98.20       98.05    
        97.89       97.74       97.58       97.42       97.26       97.10       96.94       96.78       96.64       96.50    
        96.37       96.27       96.18       96.12       96.09       96.08       96.11       96.17       96.25       96.36    
        96.49       96.64       96.80       96.97       97.15       97.33       97.51       97.69       97.87       98.05    
        98.22       98.38       98.54       98.69       98.84       98.98       99.11       99.24       99.36       99.48    
        99.59       99.70       99.80       99.89       99.98       100.1       100.1       100.2       100.3       100.4    
        100.4       100.5       100.5       100.6       100.6       100.7       100.7       100.8       100.8       100.8    
        100.9       100.9       100.9       100.9       101.0       101.0       101.0       101.0       101.0       101.0    
        101.0       101.0       101.0       101.0       101.0       101.0       101.0       101.0       101.0       100.9    
        100.9       100.9       100.9       100.8       100.8       100.7       100.6       100.6       100.4       100.3    
        100.0    
  19    100.0       99.54       99.23       98.99       98.80       98.62       98.46       98.30       98.14       97.98    
        97.82       97.66       97.49       97.32       97.15       96.98       96.80       96.64       96.47       96.32    
        96.18       96.07       95.97       95.90       95.86       95.86       95.89       95.95       96.04       96.16    
        96.30       96.46       96.64       96.83       97.02       97.21       97.41       97.60       97.79       97.97    
        98.15       98.33       98.49       98.65       98.80       98.95       99.09       99.22       99.35       99.47    
        99.58       99.69       99.79       99.89       99.98       100.1       100.2       100.2       100.3       100.4    
        100.4       100.5       100.6       100.6       100.7       100.7       100.7       100.8       100.8       100.9    
        100.9       100.9       100.9       101.0       101.0       101.0       101.0       101.0       101.0       101.0    
        101.1       101.1       101.1       101.0       101.0       101.0       101.0       101.0       101.0       101.0    
        100.9       100.9       100.9       100.8       100.8       100.7       100.7       100.6       100.4       100.3    
        100.0    
  20    100.0       99.53       99.21       98.97       98.77       98.59       98.42       98.26       98.09       97.93    
        97.76       97.59       97.41       97.23       97.05       96.86       96.68       96.50       96.32       96.16    
        96.01       95.87       95.77       95.69       95.65       95.64       95.67       95.74       95.84       95.97    
        96.13       96.30       96.49       96.69       96.90       97.10       97.31       97.52       97.72       97.91    
        98.10       98.28       98.45       98.62       98.78       98.93       99.07       99.21       99.34       99.46    
        99.58       99.69       99.79       99.89       99.98       100.1       100.2       100.2       100.3       100.4    
        100.4       100.5       100.6       100.6       100.7       100.7       100.8       100.8       100.8       100.9    
        100.9       100.9       101.0       101.0       101.0       101.0       101.0       101.1       101.1       101.1    
        101.1       101.1       101.1       101.1       101.1       101.1       101.0       101.0       101.0       101.0    
        101.0       100.9       100.9       100.8       100.8       100.7       100.7       100.6       100.4       100.3    
        100.0    
  21    100.0       99.52       99.20       98.95       98.75       98.56       98.39       98.22       98.05       97.88    
        97.71       97.53       97.34       97.15       96.96       96.76       96.57       96.37       96.18       96.01    
        95.84       95.70       95.58       95.50       95.45       95.44       95.48       95.55       95.66       95.80    
        95.97       96.15       96.36       96.57       96.79       97.01       97.23       97.44       97.65       97.86    
        98.05       98.24       98.42       98.59       98.75       98.91       99.05       99.19       99.33       99.45    
        99.57       99.69       99.79       99.89       99.99       100.1       100.2       100.2       100.3       100.4    
        100.5       100.5       100.6       100.6       100.7       100.7       100.8       100.8       100.9       100.9    
        100.9       101.0       101.0       101.0       101.0       101.0       101.1       101.1       101.1       101.1    
        101.1       101.1       101.1       101.1       101.1       101.1       101.1       101.0       101.0       101.0    
        101.0       100.9       100.9       100.9       100.8       100.7       100.7       100.6       100.5       100.3    
        100.0    
  22    100.0       99.51       99.18       98.94       98.73       98.54       98.36       98.19       98.02       97.84    
        97.66       97.48       97.28       97.09       96.89       96.68       96.47       96.27       96.07       95.87    
        95.70       95.54       95.42       95.33       95.27       95.27       95.30       95.38       95.49       95.65    
        95.83       96.03       96.24       96.47       96.70       96.93       97.16       97.38       97.60       97.81    
        98.01       98.21       98.39       98.57       98.74       98.89       99.05       99.19       99.32       99.45    
        99.57       99.69       99.80       99.90      100.00       100.1       100.2       100.3       100.3       100.4    
        100.5       100.5       100.6       100.7       100.7       100.8       100.8       100.8       100.9       100.9    
        100.9       101.0       101.0       101.0       101.0       101.1       101.1       101.1       101.1       101.1    
        101.1       101.1       101.1       101.1       101.1       101.1       101.1       101.1       101.0       101.0    
        101.0       101.0       100.9       100.9       100.8       100.8       100.7       100.6       100.5       100.3    
        100.0    
  23    100.0       99.51       99.18       98.92       98.71       98.52       98.34       98.17       97.99       97.81    
        97.63       97.44       97.24       97.04       96.83       96.61       96.40       96.18       95.97       95.77    
        95.58       95.42       95.28       95.19       95.13       95.12       95.16       95.24       95.36       95.52    
        95.71       95.92       96.15       96.39       96.63       96.87       97.11       97.34       97.56       97.78    
        97.99       98.19       98.37       98.55       98.73       98.89       99.04       99.19       99.32       99.46    
        99.58       99.70       99.81       99.91       100.0       100.1       100.2       100.3       100.3       100.4    
        100.5       100.6       100.6       100.7       100.7       100.8       100.8       100.9       100.9       100.9    
        101.0       101.0       101.0       101.0       101.1       101.1       101.1       101.1       101.1       101.1    
        101.1       101.1       101.1       101.1       101.1       101.1       101.1       101.1       101.1       101.0    
        101.0       101.0       100.9       100.9       100.8       100.8       100.7       100.6       100.5       100.3    
        100.0    
  24    100.0       99.50       99.17       98.92       98.71       98.51       98.33       98.15       97.97       97.79    
        97.60       97.41       97.21       97.00       96.79       96.57       96.34       96.12       95.90       95.69    
        95.50       95.33       95.19       95.08       95.02       95.01       95.05       95.14       95.27       95.43    
        95.63       95.85       96.09       96.33       96.58       96.83       97.07       97.31       97.54       97.76    
        97.97       98.17       98.37       98.55       98.72       98.89       99.04       99.19       99.33       99.46    
        99.59       99.71       99.82       99.92       100.0       100.1       100.2       100.3       100.4       100.4    
        100.5       100.6       100.6       100.7       100.7       100.8       100.8       100.9       100.9       101.0    
        101.0       101.0       101.0       101.1       101.1       101.1       101.1       101.1       101.1       101.1    
        101.1       101.1       101.1       101.1       101.1       101.1       101.1       101.1       101.1       101.0    
        101.0       101.0       100.9       100.9       100.8       100.8       100.7       100.6       100.5       100.3    
        100.0    
  25    100.0       99.50       99.17       98.92       98.70       98.51       98.33       98.15       97.97       97.78    
        97.59       97.40       97.19       96.98       96.76       96.54       96.31       96.09       95.86       95.65    
        95.45       95.27       95.13       95.02       94.96       94.95       94.99       95.08       95.21       95.38    
        95.59       95.81       96.05       96.30       96.56       96.81       97.06       97.30       97.53       97.76    
        97.97       98.17       98.37       98.55       98.73       98.89       99.05       99.20       99.34       99.47    
        99.60       99.72       99.83       99.94       100.0       100.1       100.2       100.3       100.4       100.5    
        100.5       100.6       100.7       100.7       100.8       100.8       100.9       100.9       100.9       101.0    
        101.0       101.0       101.1       101.1       101.1       101.1       101.1       101.1       101.2       101.2    
        101.2       101.2       101.2       101.2       101.1       101.1       101.1       101.1       101.1       101.1    
        101.0       101.0       101.0       100.9       100.9       100.8       100.7       100.6       100.5       100.3    
        100.0    
  26    100.0       99.50       99.17       98.92       98.71       98.51       98.33       98.15       97.97       97.79    
        97.60       97.40       97.20       96.98       96.77       96.54       96.31       96.08       95.86       95.64    
        95.44       95.27       95.12       95.01       94.95       94.94       94.98       95.07       95.20       95.38    
        95.58       95.81       96.05       96.30       96.56       96.81       97.06       97.30       97.54       97.76    
        97.98       98.19       98.38       98.57       98.74       98.91       99.07       99.22       99.36       99.49    
        99.62       99.74       99.85       99.95       100.1       100.1       100.2       100.3       100.4       100.5    
        100.5       100.6       100.7       100.7       100.8       100.8       100.9       100.9       101.0       101.0    
        101.0       101.1       101.1       101.1       101.1       101.1       101.2       101.2       101.2       101.2    
        101.2       101.2       101.2       101.2       101.2       101.2       101.1       101.1       101.1       101.1    
        101.0       101.0       101.0       100.9       100.9       100.8       100.7       100.6       100.5       100.3    
        100.0    
  27    100.0       99.51       99.18       98.93       98.71       98.52       98.34       98.16       97.98       97.80    
        97.61       97.42       97.21       97.00       96.79       96.56       96.34       96.11       95.89       95.67    
        95.48       95.30       95.16       95.05       94.99       94.98       95.02       95.11       95.24       95.41    
        95.62       95.84       96.08       96.33       96.59       96.84       97.09       97.33       97.56       97.79    
        98.00       98.21       98.40       98.59       98.76       98.93       99.09       99.24       99.38       99.51    
        99.64       99.76       99.87       99.98       100.1       100.2       100.3       100.3       100.4       100.5    
        100.6       100.6       100.7       100.7       100.8       100.9       100.9       100.9       101.0       101.0    
        101.0       101.1       101.1       101.1       101.1       101.2       101.2       101.2       101.2       101.2    
        101.2       101.2       101.2       101.2       101.2       101.2       101.2       101.1       101.1       101.1    
        101.1       101.0       101.0       100.9       100.9       100.8       100.7       100.6       100.5       100.3    
        100.0    
  28    100.0       99.51       99.19       98.94       98.73       98.54       98.36       98.19       98.01       97.83    
        97.64       97.45       97.25       97.04       96.83       96.61       96.39       96.17       95.95       95.74    
        95.55       95.38       95.24       95.14       95.08       95.07       95.11       95.19       95.32       95.49    
        95.69       95.91       96.15       96.39       96.64       96.89       97.14       97.38       97.61       97.83    
        98.04       98.24       98.44       98.62       98.79       98.96       99.12       99.26       99.40       99.54    
        99.66       99.78       99.89      100.00       100.1       100.2       100.3       100.4       100.4       100.5    
        100.6       100.7       100.7       100.8       100.8       100.9       100.9       101.0       101.0       101.0    
        101.1       101.1       101.1       101.1       101.2       101.2       101.2       101.2       101.2       101.2    
        101.2       101.2       101.2       101.2       101.2       101.2       101.2       101.1       101.1       101.1    
        101.1       101.0       101.0       100.9       100.9       100.8       100.7       100.6       100.5       100.3    
        100.0    
  29    100.0       99.52       99.20       98.96       98.75       98.56       98.39       98.22       98.04       97.86    
        97.68       97.49       97.30       97.10       96.89       96.68       96.46       96.25       96.04       95.84    
        95.66       95.49       95.36       95.27       95.21       95.20       95.24       95.32       95.45       95.61    
        95.80       96.02       96.24       96.48       96.72       96.97       97.20       97.44       97.66       97.88    
        98.09       98.29       98.48       98.66       98.83       99.00       99.15       99.30       99.44       99.57    
        99.69       99.81       99.92       100.0       100.1       100.2       100.3       100.4       100.5       100.5    
        100.6       100.7       100.7       100.8       100.8       100.9       100.9       101.0       101.0       101.1    
        101.1       101.1       101.1       101.2       101.2       101.2       101.2       101.2       101.2       101.2    
        101.2       101.2       101.2       101.2       101.2       101.2       101.2       101.2       101.1       101.1    
        101.1       101.0       101.0       101.0       100.9       100.8       100.7       100.6       100.5       100.3    
        100.0    
  30    100.0       99.53       99.22       98.98       98.78       98.59       98.42       98.25       98.08       97.91    
        97.74       97.55       97.36       97.17       96.97       96.77       96.56       96.36       96.16       95.97    
        95.80       95.65       95.52       95.43       95.38       95.38       95.41       95.49       95.61       95.76    
        95.95       96.15       96.37       96.59       96.83       97.06       97.29       97.52       97.74       97.95    
        98.15       98.35       98.53       98.71       98.88       99.04       99.19       99.34       99.47       99.60    
        99.73       99.84       99.95       100.1       100.2       100.2       100.3       100.4       100.5       100.6    
        100.6       100.7       100.8       100.8       100.9       100.9       101.0       101.0       101.0       101.1    
        101.1       101.1       101.2       101.2       101.2       101.2       101.2       101.2       101.2       101.3    
        101.3       101.3       101.2       101.2       101.2       101.2       101.2       101.2       101.2       101.1    
        101.1       101.1       101.0       101.0       100.9       100.8       100.8       100.6       100.5       100.3    
        100.0    
  31    100.0       99.54       99.24       99.00       98.81       98.63       98.46       98.30       98.14       97.97    
        97.80       97.62       97.44       97.26       97.07       96.87       96.68       96.49       96.30       96.13    
        95.97       95.83       95.71       95.63       95.59       95.58       95.62       95.69       95.80       95.95    
        96.12       96.31       96.51       96.73       96.95       97.17       97.39       97.61       97.82       98.02    
        98.22       98.41       98.59       98.77       98.93       99.09       99.24       99.38       99.51       99.64    
        99.76       99.88       99.99       100.1       100.2       100.3       100.4       100.4       100.5       100.6    
        100.7       100.7       100.8       100.8       100.9       100.9       101.0       101.0       101.1       101.1    
        101.1       101.2       101.2       101.2       101.2       101.2       101.2       101.3       101.3       101.3    
        101.3       101.3       101.3       101.3       101.2       101.2       101.2       101.2       101.2       101.1    
        101.1       101.1       101.0       101.0       100.9       100.8       100.8       100.7       100.5       100.3    
        100.0    
  32    100.0       99.56       99.26       99.03       98.84       98.67       98.51       98.35       98.20       98.04    
        97.87       97.70       97.53       97.36       97.18       97.00       96.82       96.64       96.46       96.30    
        96.15       96.03       95.92       95.85       95.81       95.81       95.84       95.91       96.02       96.15    
        96.31       96.48       96.68       96.88       97.09       97.30       97.51       97.71       97.92       98.11    
        98.30       98.49       98.66       98.83       98.99       99.14       99.29       99.43       99.56       99.68    
        99.80       99.92       100.0       100.1       100.2       100.3       100.4       100.5       100.5       100.6    
        100.7       100.8       100.8       100.9       100.9       101.0       101.0       101.0       101.1       101.1    
        101.1       101.2       101.2       101.2       101.2       101.3       101.3       101.3       101.3       101.3    
        101.3       101.3       101.3       101.3       101.3       101.2       101.2       101.2       101.2       101.1    
        101.1       101.1       101.0       101.0       100.9       100.9       100.8       100.7       100.5       100.3    
        100.0    
  33    100.0       99.57       99.28       99.07       98.88       98.72       98.56       98.41       98.26       98.11    
        97.95       97.80       97.63       97.47       97.30       97.13       96.96       96.80       96.64       96.49    
        96.36       96.24       96.15       96.09       96.05       96.05       96.08       96.15       96.24       96.37    
        96.51       96.68       96.86       97.04       97.24       97.44       97.63       97.83       98.02       98.21    
        98.39       98.57       98.74       98.90       99.06       99.20       99.35       99.48       99.61       99.73    
        99.85       99.96       100.1       100.2       100.3       100.3       100.4       100.5       100.6       100.7    
        100.7       100.8       100.8       100.9       100.9       101.0       101.0       101.1       101.1       101.1    
        101.2       101.2       101.2       101.2       101.3       101.3       101.3       101.3       101.3       101.3    
        101.3       101.3       101.3       101.3       101.3       101.3       101.2       101.2       101.2       101.2    
        101.1       101.1       101.0       101.0       100.9       100.9       100.8       100.7       100.5       100.3    
        100.0    
  34    100.0       99.59       99.31       99.10       98.93       98.77       98.62       98.48       98.33       98.19    
        98.04       97.89       97.74       97.59       97.43       97.27       97.12       96.97       96.83       96.69    
        96.57       96.47       96.39       96.33       96.30       96.30       96.33       96.39       96.48       96.59    
        96.73       96.88       97.04       97.22       97.40       97.59       97.77       97.96       98.14       98.32    
        98.49       98.66       98.82       98.98       99.13       99.27       99.41       99.54       99.66       99.78    
        99.89       100.0       100.1       100.2       100.3       100.4       100.5       100.5       100.6       100.7    
        100.7       100.8       100.9       100.9       101.0       101.0       101.1       101.1       101.1       101.2    
        101.2       101.2       101.2       101.3       101.3       101.3       101.3       101.3       101.3       101.3    
        101.3       101.3       101.3       101.3       101.3       101.3       101.3       101.2       101.2       101.2    
        101.1       101.1       101.1       101.0       100.9       100.9       100.8       100.7       100.5       100.3    
        100.0    
  35    100.0       99.61       99.34       99.14       98.97       98.82       98.68       98.55       98.41       98.27    
        98.14       98.00       97.86       97.71       97.57       97.42       97.28       97.15       97.02       96.90    
        96.79       96.70       96.63       96.58       96.56       96.56       96.59       96.64       96.72       96.83    
        96.95       97.09       97.24       97.40       97.57       97.74       97.91       98.09       98.26       98.43    
        98.59       98.75       98.91       99.06       99.20       99.34       99.47       99.60       99.72       99.83    
        99.94       100.0       100.1       100.2       100.3       100.4       100.5       100.6       100.6       100.7    
        100.8       100.8       100.9       100.9       101.0       101.0       101.1       101.1       101.2       101.2    
        101.2       101.2       101.3       101.3       101.3       101.3       101.3       101.3       101.3       101.3    
        101.3       101.3       101.3       101.3       101.3       101.3       101.3       101.2       101.2       101.2    
        101.1       101.1       101.1       101.0       100.9       100.9       100.8       100.7       100.5       100.3    
        100.0    
  36    100.0       99.62       99.37       99.18       99.02       98.88       98.75       98.62       98.49       98.37    
        98.24       98.11       97.98       97.84       97.71       97.58       97.45       97.33       97.21       97.10    
        97.01       96.93       96.87       96.83       96.81       96.81       96.84       96.89       96.97       97.06    
        97.17       97.30       97.44       97.59       97.74       97.90       98.06       98.22       98.38       98.54    
        98.70       98.85       99.00       99.14       99.28       99.41       99.54       99.66       99.78       99.89    
       100.00       100.1       100.2       100.3       100.4       100.5       100.5       100.6       100.7       100.7    
        100.8       100.9       100.9       101.0       101.0       101.1       101.1       101.1       101.2       101.2    
        101.2       101.3       101.3       101.3       101.3       101.3       101.3       101.3       101.3       101.3    
        101.3       101.3       101.3       101.3       101.3       101.3       101.3       101.3       101.2       101.2    
        101.2       101.1       101.1       101.0       101.0       100.9       100.8       100.7       100.5       100.3    
        100.0    
  37    100.0       99.64       99.41       99.23       99.08       98.94       98.82       98.70       98.58       98.46    
        98.34       98.22       98.10       97.98       97.86       97.74       97.62       97.51       97.41       97.31    
        97.23       97.16       97.11       97.07       97.06       97.06       97.09       97.14       97.20       97.29    
        97.39       97.51       97.63       97.77       97.91       98.06       98.21       98.36       98.51       98.66    
        98.81       98.95       99.09       99.23       99.36       99.49       99.61       99.73       99.84       99.95    
        100.1       100.1       100.2       100.3       100.4       100.5       100.6       100.6       100.7       100.8    
        100.8       100.9       100.9       101.0       101.0       101.1       101.1       101.2       101.2       101.2    
        101.3       101.3       101.3       101.3       101.3       101.3       101.4       101.4       101.4       101.4    
        101.4       101.4       101.4       101.3       101.3       101.3       101.3       101.3       101.2       101.2    
        101.2       101.1       101.1       101.0       101.0       100.9       100.8       100.7       100.5       100.3    
        100.0    
  38    100.0       99.67       99.44       99.27       99.13       99.01       98.89       98.78       98.66       98.55    
        98.44       98.33       98.22       98.11       98.00       97.89       97.79       97.69       97.60       97.52    
        97.44       97.38       97.34       97.31       97.30       97.30       97.33       97.38       97.44       97.52    
        97.61       97.71       97.83       97.96       98.09       98.22       98.36       98.50       98.64       98.78    
        98.92       99.06       99.19       99.32       99.44       99.57       99.68       99.80       99.90       100.0    
        100.1       100.2       100.3       100.4       100.5       100.5       100.6       100.7       100.7       100.8    
        100.9       100.9       101.0       101.0       101.1       101.1       101.2       101.2       101.2       101.3    
        101.3       101.3       101.3       101.3       101.4       101.4       101.4       101.4       101.4       101.4    
        101.4       101.4       101.4       101.4       101.3       101.3       101.3       101.3       101.2       101.2    
        101.2       101.1       101.1       101.0       101.0       100.9       100.8       100.7       100.5       100.3    
        100.0    
  39    100.0       99.69       99.48       99.32       99.19       99.07       98.96       98.86       98.75       98.65    
        98.55       98.45       98.35       98.25       98.15       98.05       97.96       97.87       97.79       97.72    
        97.65       97.60       97.56       97.54       97.53       97.54       97.56       97.61       97.66       97.74    
        97.82       97.92       98.02       98.14       98.26       98.38       98.51       98.64       98.78       98.91    
        99.04       99.16       99.29       99.41       99.53       99.65       99.76       99.86       99.97       100.1    
        100.2       100.3       100.3       100.4       100.5       100.6       100.7       100.7       100.8       100.8    
        100.9       101.0       101.0       101.1       101.1       101.1       101.2       101.2       101.2       101.3    
        101.3       101.3       101.3       101.4       101.4       101.4       101.4       101.4       101.4       101.4    
        101.4       101.4       101.4       101.4       101.4       101.3       101.3       101.3       101.3       101.2    
        101.2       101.1       101.1       101.0       101.0       100.9       100.8       100.7       100.5       100.3    
        100.0    
  40    100.0       99.71       99.51       99.37       99.25       99.14       99.03       98.94       98.84       98.75    
        98.66       98.56       98.47       98.38       98.29       98.21       98.12       98.05       97.97       97.91    
        97.86       97.81       97.78       97.76       97.76       97.76       97.79       97.83       97.88       97.95    
        98.02       98.11       98.21       98.32       98.43       98.54       98.66       98.78       98.91       99.03    
        99.15       99.27       99.39       99.50       99.62       99.73       99.83       99.94       100.0       100.1    
        100.2       100.3       100.4       100.5       100.6       100.6       100.7       100.8       100.8       100.9    
        100.9       101.0       101.0       101.1       101.1       101.2       101.2       101.2       101.3       101.3    
        101.3       101.3       101.4       101.4       101.4       101.4       101.4       101.4       101.4       101.4    
        101.4       101.4       101.4       101.4       101.4       101.3       101.3       101.3       101.3       101.2    
        101.2       101.2       101.1       101.1       101.0       100.9       100.8       100.7       100.5       100.3    
        100.0    
  41    100.0       99.73       99.55       99.42       99.30       99.20       99.11       99.02       98.93       98.85    
        98.76       98.68       98.60       98.51       98.43       98.36       98.28       98.22       98.15       98.10    
        98.05       98.01       97.99       97.97       97.97       97.98       98.00       98.04       98.09       98.15    
        98.22       98.30       98.39       98.49       98.59       98.70       98.81       98.92       99.04       99.15    
        99.26       99.38       99.49       99.60       99.70       99.81       99.91       100.0       100.1       100.2    
        100.3       100.4       100.4       100.5       100.6       100.7       100.7       100.8       100.9       100.9    
        101.0       101.0       101.1       101.1       101.2       101.2       101.2       101.3       101.3       101.3    
        101.3       101.4       101.4       101.4       101.4       101.4       101.4       101.4       101.4       101.4    
        101.4       101.4       101.4       101.4       101.4       101.4       101.3       101.3       101.3       101.2    
        101.2       101.2       101.1       101.1       101.0       100.9       100.8       100.7       100.6       100.3    
        100.0    
  42    100.0       99.75       99.59       99.46       99.36       99.27       99.18       99.10       99.02       98.94    
        98.87       98.79       98.72       98.64       98.57       98.50       98.44       98.38       98.33       98.28    
        98.24       98.21       98.19       98.17       98.17       98.19       98.21       98.24       98.29       98.35    
        98.41       98.49       98.57       98.66       98.75       98.85       98.95       99.06       99.16       99.27    
        99.38       99.48       99.59       99.69       99.79       99.89       99.99       100.1       100.2       100.3    
        100.3       100.4       100.5       100.6       100.6       100.7       100.8       100.8       100.9       101.0    
        101.0       101.1       101.1       101.1       101.2       101.2       101.3       101.3       101.3       101.3    
        101.4       101.4       101.4       101.4       101.4       101.4       101.4       101.4       101.4       101.4    
        101.4       101.4       101.4       101.4       101.4       101.4       101.3       101.3       101.3       101.3    
        101.2       101.2       101.1       101.1       101.0       100.9       100.8       100.7       100.6       100.3    
        100.0    
  43    100.0       99.78       99.63       99.51       99.42       99.33       99.26       99.18       99.11       99.04    
        98.97       98.90       98.84       98.77       98.71       98.65       98.59       98.54       98.49       98.45    
        98.42       98.39       98.37       98.37       98.37       98.38       98.40       98.44       98.48       98.53    
        98.59       98.66       98.74       98.82       98.91       99.00       99.09       99.19       99.29       99.39    
        99.49       99.59       99.69       99.78       99.88       99.97       100.1       100.2       100.2       100.3    
        100.4       100.5       100.6       100.6       100.7       100.8       100.8       100.9       100.9       101.0    
        101.0       101.1       101.1       101.2       101.2       101.2       101.3       101.3       101.3       101.4    
        101.4       101.4       101.4       101.4       101.4       101.5       101.5       101.5       101.5       101.5    
        101.5       101.4       101.4       101.4       101.4       101.4       101.4       101.3       101.3       101.3    
        101.2       101.2       101.1       101.1       101.0       100.9       100.8       100.7       100.6       100.3    
        100.0    
  44    100.0       99.80       99.66       99.56       99.48       99.40       99.33       99.26       99.20       99.14    
        99.07       99.01       98.95       98.90       98.84       98.79       98.74       98.69       98.65       98.62    
        98.59       98.57       98.55       98.55       98.55       98.57       98.59       98.62       98.66       98.71    
        98.77       98.83       98.90       98.98       99.06       99.14       99.23       99.32       99.41       99.50    
        99.60       99.69       99.78       99.87       99.96       100.1       100.1       100.2       100.3       100.4    
        100.5       100.5       100.6       100.7       100.7       100.8       100.9       100.9       101.0       101.0    
        101.1       101.1       101.2       101.2       101.2       101.3       101.3       101.3       101.4       101.4    
        101.4       101.4       101.4       101.5       101.5       101.5       101.5       101.5       101.5       101.5    
        101.5       101.5       101.4       101.4       101.4       101.4       101.4       101.3       101.3       101.3    
        101.2       101.2       101.1       101.1       101.0       100.9       100.8       100.7       100.6       100.3    
        100.0    
  45    100.0       99.82       99.70       99.61       99.53       99.46       99.40       99.34       99.28       99.23    
        99.17       99.12       99.07       99.02       98.97       98.92       98.88       98.84       98.80       98.78    
        98.75       98.74       98.73       98.72       98.73       98.74       98.76       98.79       98.83       98.88    
        98.93       98.99       99.06       99.13       99.20       99.28       99.36       99.44       99.53       99.62    
        99.70       99.79       99.88       99.96       100.0       100.1       100.2       100.3       100.4       100.4    
        100.5       100.6       100.7       100.7       100.8       100.9       100.9       101.0       101.0       101.1    
        101.1       101.2       101.2       101.2       101.3       101.3       101.3       101.4       101.4       101.4    
        101.4       101.4       101.5       101.5       101.5       101.5       101.5       101.5       101.5       101.5    
        101.5       101.5       101.5       101.4       101.4       101.4       101.4       101.3       101.3       101.3    
        101.2       101.2       101.1       101.1       101.0       100.9       100.8       100.7       100.6       100.3    
        100.0    
  46    100.0       99.84       99.74       99.66       99.59       99.53       99.47       99.42       99.37       99.32    
        99.27       99.22       99.18       99.13       99.09       99.05       99.01       98.98       98.95       98.93    
        98.91       98.89       98.89       98.89       98.89       98.91       98.93       98.96       99.00       99.04    
        99.09       99.14       99.20       99.27       99.34       99.41       99.49       99.57       99.65       99.73    
        99.81       99.89       99.97       100.1       100.1       100.2       100.3       100.4       100.4       100.5    
        100.6       100.6       100.7       100.8       100.8       100.9       101.0       101.0       101.1       101.1    
        101.1       101.2       101.2       101.3       101.3       101.3       101.4       101.4       101.4       101.4    
        101.4       101.5       101.5       101.5       101.5       101.5       101.5       101.5       101.5       101.5    
        101.5       101.5       101.5       101.5       101.4       101.4       101.4       101.4       101.3       101.3    
        101.2       101.2       101.2       101.1       101.0       100.9       100.8       100.7       100.6       100.3    
        100.0    
  47    100.0       99.86       99.77       99.70       99.64       99.59       99.54       99.50       99.45       99.41    
        99.36       99.32       99.28       99.24       99.21       99.17       99.14       99.11       99.09       99.07    
        99.05       99.05       99.04       99.04       99.05       99.07       99.09       99.12       99.15       99.19    
        99.24       99.29       99.35       99.41       99.47       99.54       99.61       99.68       99.76       99.83    
        99.91       99.99       100.1       100.1       100.2       100.3       100.4       100.4       100.5       100.6    
        100.6       100.7       100.8       100.8       100.9       100.9       101.0       101.0       101.1       101.1    
        101.2       101.2       101.3       101.3       101.3       101.4       101.4       101.4       101.4       101.4    
        101.5       101.5       101.5       101.5       101.5       101.5       101.5       101.5       101.5       101.5    
        101.5       101.5       101.5       101.5       101.4       101.4       101.4       101.4       101.3       101.3    
        101.3       101.2       101.2       101.1       101.0       100.9       100.9       100.7       100.6       100.3    
        100.0    
  48    100.0       99.88       99.81       99.75       99.70       99.65       99.61       99.57       99.53       99.49    
        99.46       99.42       99.38       99.35       99.32       99.29       99.26       99.24       99.22       99.21    
        99.19       99.19       99.19       99.19       99.20       99.22       99.24       99.26       99.30       99.34    
        99.38       99.43       99.48       99.54       99.60       99.66       99.73       99.80       99.86       99.94    
        100.0       100.1       100.2       100.2       100.3       100.4       100.4       100.5       100.6       100.6    
        100.7       100.8       100.8       100.9       100.9       101.0       101.0       101.1       101.1       101.2    
        101.2       101.3       101.3       101.3       101.4       101.4       101.4       101.4       101.5       101.5    
        101.5       101.5       101.5       101.5       101.5       101.5       101.5       101.5       101.5       101.5    
        101.5       101.5       101.5       101.5       101.5       101.4       101.4       101.4       101.3       101.3    
        101.3       101.2       101.2       101.1       101.0       101.0       100.9       100.7       100.6       100.4    
        100.0    
  49    100.0       99.91       99.84       99.79       99.75       99.71       99.67       99.64       99.61       99.57    
        99.54       99.51       99.48       99.46       99.43       99.40       99.38       99.36       99.35       99.34    
        99.33       99.32       99.32       99.33       99.34       99.36       99.38       99.40       99.44       99.47    
        99.51       99.56       99.61       99.66       99.72       99.78       99.84       99.90       99.97       100.0    
        100.1       100.2       100.2       100.3       100.4       100.4       100.5       100.6       100.6       100.7    
        100.8       100.8       100.9       100.9       101.0       101.0       101.1       101.1       101.2       101.2    
        101.2       101.3       101.3       101.3       101.4       101.4       101.4       101.5       101.5       101.5    
        101.5       101.5       101.5       101.5       101.5       101.5       101.5       101.5       101.5       101.5    
        101.5       101.5       101.5       101.5       101.5       101.4       101.4       101.4       101.3       101.3    
        101.3       101.2       101.2       101.1       101.0       101.0       100.9       100.7       100.6       100.4    
        100.0    
  50    100.0       99.93       99.87       99.83       99.80       99.77       99.74       99.71       99.68       99.65    
        99.63       99.60       99.58       99.55       99.53       99.51       99.49       99.48       99.47       99.46    
        99.45       99.45       99.46       99.46       99.47       99.49       99.51       99.54       99.57       99.60    
        99.64       99.68       99.73       99.78       99.83       99.89       99.95       100.0       100.1       100.1    
        100.2       100.3       100.3       100.4       100.4       100.5       100.6       100.6       100.7       100.8    
        100.8       100.9       100.9       101.0       101.0       101.1       101.1       101.2       101.2       101.2    
        101.3       101.3       101.3       101.4       101.4       101.4       101.5       101.5       101.5       101.5    
        101.5       101.5       101.5       101.6       101.6       101.6       101.6       101.6       101.6       101.5    
        101.5       101.5       101.5       101.5       101.5       101.4       101.4       101.4       101.4       101.3    
        101.3       101.2       101.2       101.1       101.0       101.0       100.9       100.7       100.6       100.4    
        100.0    
  51    100.0       99.94       99.91       99.88       99.85       99.82       99.80       99.78       99.75       99.73    
        99.71       99.69       99.67       99.65       99.63       99.62       99.60       99.59       99.58       99.58    
        99.57       99.57       99.58       99.59       99.60       99.62       99.64       99.66       99.69       99.73    
        99.76       99.80       99.85       99.89       99.94      100.00       100.1       100.1       100.2       100.2    
        100.3       100.3       100.4       100.5       100.5       100.6       100.6       100.7       100.8       100.8    
        100.9       100.9       101.0       101.0       101.1       101.1       101.2       101.2       101.2       101.3    
        101.3       101.3       101.4       101.4       101.4       101.5       101.5       101.5       101.5       101.5    
        101.5       101.6       101.6       101.6       101.6       101.6       101.6       101.6       101.6       101.6    
        101.5       101.5       101.5       101.5       101.5       101.5       101.4       101.4       101.4       101.3    
        101.3       101.2       101.2       101.1       101.0       101.0       100.9       100.7       100.6       100.4    
        100.0    
  52    100.0       99.96       99.94       99.92       99.90       99.88       99.86       99.84       99.82       99.81    
        99.79       99.77       99.76       99.74       99.73       99.71       99.70       99.70       99.69       99.69    
        99.69       99.69       99.70       99.71       99.72       99.74       99.76       99.78       99.81       99.84    
        99.88       99.92       99.96       100.0       100.0       100.1       100.1       100.2       100.3       100.3    
        100.4       100.4       100.5       100.5       100.6       100.6       100.7       100.8       100.8       100.9    
        100.9       101.0       101.0       101.1       101.1       101.2       101.2       101.2       101.3       101.3    
        101.3       101.4       101.4       101.4       101.5       101.5       101.5       101.5       101.5       101.5    
        101.6       101.6       101.6       101.6       101.6       101.6       101.6       101.6       101.6       101.6    
        101.6       101.5       101.5       101.5       101.5       101.5       101.4       101.4       101.4       101.3    
        101.3       101.2       101.2       101.1       101.1       101.0       100.9       100.7       100.6       100.4    
        100.0    
  53    100.0       99.98       99.97       99.95       99.94       99.93       99.92       99.90       99.89       99.88    
        99.86       99.85       99.84       99.83       99.82       99.81       99.80       99.80       99.79       99.79    
        99.79       99.80       99.81       99.82       99.83       99.85       99.87       99.89       99.92       99.95    
        99.99       100.0       100.1       100.1       100.1       100.2       100.2       100.3       100.3       100.4    
        100.4       100.5       100.6       100.6       100.7       100.7       100.8       100.8       100.9       100.9    
        101.0       101.0       101.1       101.1       101.1       101.2       101.2       101.3       101.3       101.3    
        101.4       101.4       101.4       101.5       101.5       101.5       101.5       101.5       101.6       101.6    
        101.6       101.6       101.6       101.6       101.6       101.6       101.6       101.6       101.6       101.6    
        101.6       101.6       101.5       101.5       101.5       101.5       101.4       101.4       101.4       101.3    
        101.3       101.2       101.2       101.1       101.1       101.0       100.9       100.7       100.6       100.4    
        100.0    
  54    100.0      100.00      100.00       99.99       99.99       99.98       99.97       99.96       99.95       99.94    
        99.94       99.93       99.92       99.91       99.90       99.90       99.89       99.89       99.89       99.89    
[...]
        101.2       101.2       101.2       101.2       101.2       101.2       101.2       101.2       101.3       101.3    
        101.3       101.3       101.3       101.3       101.3       101.3       101.3       101.3       101.2       101.2    
        101.2       101.2       101.2       101.2       101.2       101.2       101.2       101.2       101.2       101.1    
        101.1       101.1       101.1       101.1       101.1       101.0       101.0       101.0       101.0       100.9    
        100.9       100.9       100.9       100.8       100.8       100.8       100.8       100.8       100.8       100.8    
        100.7    
  89    100.5       100.5       100.5       100.5       100.6       100.6       100.6       100.6       100.6       100.6    
        100.7       100.7       100.7       100.7       100.7       100.8       100.8       100.8       100.8       100.8    
        100.8       100.9       100.9       100.9       100.9       100.9       100.9       100.9       101.0       101.0    
        101.0       101.0       101.0       101.0       101.0       101.0       101.1       101.1       101.1       101.1    
        101.1       101.1       101.1       101.1       101.1       101.1       101.2       101.2       101.2       101.2    
        101.2       101.2       101.2       101.2       101.2       101.2       101.2       101.2       101.2       101.2    
        101.2       101.2       101.2       101.2       101.2       101.2       101.2       101.2       101.2       101.2    
        101.2       101.2       101.2       101.2       101.2       101.2       101.2       101.1       101.1       101.1    
        101.1       101.1       101.1       101.0       101.0       101.0       101.0       101.0       100.9       100.9    
        100.9       100.9       100.9       100.8       100.8       100.8       100.8       100.8       100.7       100.7    
        100.7    
  90    100.5       100.5       100.5       100.5       100.5       100.6       100.6       100.6       100.6       100.6    
        100.6       100.7       100.7       100.7       100.7       100.7       100.8       100.8       100.8       100.8    
        100.8       100.8       100.9       100.9       100.9       100.9       100.9       100.9       100.9       101.0    
        101.0       101.0       101.0       101.0       101.0       101.0       101.0       101.0       101.1       101.1    
        101.1       101.1       101.1       101.1       101.1       101.1       101.1       101.1       101.1       101.2    
        101.2       101.2       101.2       101.2       101.2       101.2       101.2       101.2       101.2       101.2    
        101.2       101.2       101.2       101.2       101.2       101.2       101.2       101.2       101.2       101.2    
        101.2       101.2       101.2       101.2       101.1       101.1       101.1       101.1       101.1       101.1    
        101.1       101.1       101.0       101.0       101.0       101.0       101.0       100.9       100.9       100.9    
        100.9       100.9       100.8       100.8       100.8       100.8       100.8       100.7       100.7       100.7    
        100.7    
  91    100.5       100.5       100.5       100.5       100.5       100.6       100.6       100.6       100.6       100.6    
        100.6       100.7       100.7       100.7       100.7       100.7       100.7       100.8       100.8       100.8    
        100.8       100.8       100.8       100.9       100.9       100.9       100.9       100.9       100.9       100.9    
        100.9       101.0       101.0       101.0       101.0       101.0       101.0       101.0       101.0       101.0    
        101.1       101.1       101.1       101.1       101.1       101.1       101.1       101.1       101.1       101.1    
        101.1       101.1       101.1       101.2       101.2       101.2       101.2       101.2       101.2       101.2    
        101.2       101.2       101.2       101.2       101.2       101.2       101.2       101.2       101.2       101.2    
        101.1       101.1       101.1       101.1       101.1       101.1       101.1       101.1       101.1       101.1    
        101.0       101.0       101.0       101.0       101.0       101.0       100.9       100.9       100.9       100.9    
        100.9       100.8       100.8       100.8       100.8       100.8       100.7       100.7       100.7       100.7    
        100.7    
  92    100.5       100.5       100.5       100.5       100.5       100.5       100.6       100.6       100.6       100.6    
        100.6       100.6       100.7       100.7       100.7       100.7       100.7       100.7       100.8       100.8    
        100.8       100.8       100.8       100.8       100.9       100.9       100.9       100.9       100.9       100.9    
        100.9       100.9       101.0       101.0       101.0       101.0       101.0       101.0       101.0       101.0    
        101.0       101.0       101.1       101.1       101.1       101.1       101.1       101.1       101.1       101.1    
        101.1       101.1       101.1       101.1       101.1       101.1       101.1       101.1       101.1       101.1    
        101.1       101.1       101.1       101.1       101.1       101.1       101.1       101.1       101.1       101.1    
        101.1       101.1       101.1       101.1       101.1       101.1       101.1       101.1       101.0       101.0    
        101.0       101.0       101.0       101.0       101.0       100.9       100.9       100.9       100.9       100.9    
        100.8       100.8       100.8       100.8       100.8       100.7       100.7       100.7       100.7       100.7    
        100.7    
  93    100.5       100.5       100.5       100.5       100.5       100.5       100.6       100.6       100.6       100.6    
        100.6       100.6       100.7       100.7       100.7       100.7       100.7       100.7       100.7       100.8    
        100.8       100.8       100.8       100.8       100.8       100.8       100.9       100.9       100.9       100.9    
        100.9       100.9       100.9       100.9       101.0       101.0       101.0       101.0       101.0       101.0    
        101.0       101.0       101.0       101.0       101.0       101.0       101.1       101.1       101.1       101.1    
        101.1       101.1       101.1       101.1       101.1       101.1       101.1       101.1       101.1       101.1    
        101.1       101.1       101.1       101.1       101.1       101.1       101.1       101.1       101.1       101.1    
        101.1       101.1       101.1       101.1       101.1       101.0       101.0       101.0       101.0       101.0    
        101.0       101.0       101.0       100.9       100.9       100.9       100.9       100.9       100.9       100.8    
        100.8       100.8       100.8       100.8       100.7       100.7       100.7       100.7       100.7       100.7    
        100.7    
  94    100.5       100.5       100.5       100.5       100.5       100.5       100.5       100.6       100.6       100.6    
        100.6       100.6       100.6       100.7       100.7       100.7       100.7       100.7       100.7       100.7    
        100.8       100.8       100.8       100.8       100.8       100.8       100.8       100.9       100.9       100.9    
        100.9       100.9       100.9       100.9       100.9       100.9       100.9       101.0       101.0       101.0    
        101.0       101.0       101.0       101.0       101.0       101.0       101.0       101.0       101.0       101.0    
        101.1       101.1       101.1       101.1       101.1       101.1       101.1       101.1       101.1       101.1    
        101.1       101.1       101.1       101.1       101.1       101.1       101.1       101.1       101.1       101.1    
        101.1       101.1       101.0       101.0       101.0       101.0       101.0       101.0       101.0       101.0    
        101.0       100.9       100.9       100.9       100.9       100.9       100.9       100.8       100.8       100.8    
        100.8       100.8       100.8       100.7       100.7       100.7       100.7       100.7       100.7       100.7    
        100.7    
  95    100.5       100.5       100.5       100.5       100.5       100.5       100.5       100.5       100.6       100.6    
        100.6       100.6       100.6       100.6       100.7       100.7       100.7       100.7       100.7       100.7    
        100.7       100.8       100.8       100.8       100.8       100.8       100.8       100.8       100.8       100.9    
        100.9       100.9       100.9       100.9       100.9       100.9       100.9       100.9       100.9       101.0    
        101.0       101.0       101.0       101.0       101.0       101.0       101.0       101.0       101.0       101.0    
        101.0       101.0       101.0       101.0       101.0       101.0       101.0       101.1       101.1       101.1    
        101.1       101.1       101.1       101.1       101.1       101.0       101.0       101.0       101.0       101.0    
        101.0       101.0       101.0       101.0       101.0       101.0       101.0       101.0       101.0       100.9    
        100.9       100.9       100.9       100.9       100.9       100.9       100.8       100.8       100.8       100.8    
        100.8       100.8       100.7       100.7       100.7       100.7       100.7       100.7       100.6       100.6    
        100.6    
  96    100.5       100.5       100.5       100.5       100.5       100.5       100.5       100.5       100.6       100.6    
        100.6       100.6       100.6       100.6       100.6       100.7       100.7       100.7       100.7       100.7    
        100.7       100.7       100.8       100.8       100.8       100.8       100.8       100.8       100.8       100.8    
        100.8       100.9       100.9       100.9       100.9       100.9       100.9       100.9       100.9       100.9    
        100.9       100.9       101.0       101.0       101.0       101.0       101.0       101.0       101.0       101.0    
        101.0       101.0       101.0       101.0       101.0       101.0       101.0       101.0       101.0       101.0    
        101.0       101.0       101.0       101.0       101.0       101.0       101.0       101.0       101.0       101.0    
        101.0       101.0       101.0       101.0       101.0       101.0       101.0       100.9       100.9       100.9    
        100.9       100.9       100.9       100.9       100.9       100.8       100.8       100.8       100.8       100.8    
        100.8       100.7       100.7       100.7       100.7       100.7       100.7       100.6       100.6       100.6    
        100.6    
  97    100.5       100.5       100.5       100.5       100.5       100.5       100.5       100.5       100.5       100.6    
        100.6       100.6       100.6       100.6       100.6       100.6       100.7       100.7       100.7       100.7    
        100.7       100.7       100.7       100.8       100.8       100.8       100.8       100.8       100.8       100.8    
        100.8       100.8       100.9       100.9       100.9       100.9       100.9       100.9       100.9       100.9    
        100.9       100.9       100.9       100.9       100.9       101.0       101.0       101.0       101.0       101.0    
        101.0       101.0       101.0       101.0       101.0       101.0       101.0       101.0       101.0       101.0    
        101.0       101.0       101.0       101.0       101.0       101.0       101.0       101.0       101.0       101.0    
        101.0       101.0       101.0       101.0       101.0       100.9       100.9       100.9       100.9       100.9    
        100.9       100.9       100.9       100.9       100.8       100.8       100.8       100.8       100.8       100.8    
        100.7       100.7       100.7       100.7       100.7       100.7       100.6       100.6       100.6       100.6    
        100.6    
  98    100.5       100.5       100.5       100.5       100.5       100.5       100.5       100.5       100.5       100.5    
        100.6       100.6       100.6       100.6       100.6       100.6       100.6       100.7       100.7       100.7    
        100.7       100.7       100.7       100.7       100.8       100.8       100.8       100.8       100.8       100.8    
        100.8       100.8       100.8       100.8       100.9       100.9       100.9       100.9       100.9       100.9    
        100.9       100.9       100.9       100.9       100.9       100.9       100.9       100.9       101.0       101.0    
        101.0       101.0       101.0       101.0       101.0       101.0       101.0       101.0       101.0       101.0    
        101.0       101.0       101.0       101.0       101.0       101.0       101.0       101.0       101.0       101.0    
        101.0       101.0       100.9       100.9       100.9       100.9       100.9       100.9       100.9       100.9    
        100.9       100.9       100.8       100.8       100.8       100.8       100.8       100.8       100.8       100.7    
        100.7       100.7       100.7       100.7       100.7       100.6       100.6       100.6       100.6       100.6    
        100.6    
  99    100.5       100.5       100.5       100.5       100.5       100.5       100.5       100.5       100.5       100.5    
        100.6       100.6       100.6       100.6       100.6       100.6       100.6       100.7       100.7       100.7    
        100.7       100.7       100.7       100.7       100.7       100.8       100.8       100.8       100.8       100.8    
        100.8       100.8       100.8       100.8       100.8       100.8       100.9       100.9       100.9       100.9    
        100.9       100.9       100.9       100.9       100.9       100.9       100.9       100.9       100.9       100.9    
        100.9       100.9       101.0       101.0       101.0       101.0       101.0       101.0       101.0       101.0    
        101.0       101.0       101.0       101.0       101.0       101.0       101.0       101.0       101.0       100.9    
        100.9       100.9       100.9       100.9       100.9       100.9       100.9       100.9       100.9       100.9    
        100.9       100.8       100.8       100.8       100.8       100.8       100.8       100.8       100.7       100.7    
        100.7       100.7       100.7       100.7       100.6       100.6       100.6       100.6       100.6       100.6    
        100.6    
 100    100.5       100.5       100.5       100.5       100.5       100.5       100.5       100.5       100.5       100.5    
        100.5       100.6       100.6       100.6       100.6       100.6       100.6       100.6       100.7       100.7    
        100.7       100.7       100.7       100.7       100.7       100.7       100.8       100.8       100.8       100.8    
        100.8       100.8       100.8       100.8       100.8       100.8       100.8       100.9       100.9       100.9    
        100.9       100.9       100.9       100.9       100.9       100.9       100.9       100.9       100.9       100.9    
        100.9       100.9       100.9       100.9       100.9       101.0       101.0       101.0       101.0       101.0    
        101.0       101.0       101.0       101.0       101.0       101.0       100.9       100.9       100.9       100.9    
        100.9       100.9       100.9       100.9       100.9       100.9       100.9       100.9       100.9       100.9    
        100.8       100.8       100.8       100.8       100.8       100.8       100.8       100.8       100.7       100.7    
        100.7       100.7       100.7       100.7       100.6       100.6       100.6       100.6       100.6       100.6    
        100.6    
 101    100.5       100.5       100.5       100.5       100.5       100.5       100.5       100.5       100.5       100.5    
        100.5       100.6       100.6       100.6       100.6       100.6       100.6       100.6       100.7       100.7    
        100.7       100.7       100.7       100.7       100.7       100.7       100.8       100.8       100.8       100.8    
        100.8       100.8       100.8       100.8       100.8       100.8       100.8       100.9       100.9       100.9    
        100.9       100.9       100.9       100.9       100.9       100.9       100.9       100.9       100.9       100.9    
        100.9       100.9       100.9       100.9       100.9       100.9       100.9       100.9       101.0       101.0    
        101.0       101.0       101.0       100.9       100.9       100.9       100.9       100.9       100.9       100.9    
        100.9       100.9       100.9       100.9       100.9       100.9       100.9       100.9       100.9       100.9    
        100.8       100.8       100.8       100.8       100.8       100.8       100.8       100.7       100.7       100.7    
        100.7       100.7       100.7       100.7       100.6       100.6       100.6       100.6       100.6       100.6    
        100.6    

 HEAD WILL BE SAVED ON UNIT 1016 AT END OF TIME STEP    1, STRESS PERIOD    1


  VOLUME BUDGET FOR ENTIRE MODEL AT END OF TIME STEP    1, STRESS PERIOD   1
  ---------------------------------------------------------------------------------------------------

     CUMULATIVE VOLUME      L**3       RATES FOR THIS TIME STEP      L**3/T          PACKAGE NAME    
     ------------------                 ------------------------                     ----------------

           IN:                                      IN:
           ---                                      ---
              STO-SS =          43.3054                STO-SS =          43.3054     STORAGE                          
              STO-SY =           0.0000                STO-SY =           0.0000     STORAGE                          
                 WEL =           0.0000                   WEL =           0.0000     WEL_0                            
                RCHA =        1529.6052                  RCHA =        1529.6052     RCH                              
                 CHD =         312.1607                   CHD =         312.1607     CHD_0                            

            TOTAL IN =        1885.0713              TOTAL IN =        1885.0713

          OUT:                                     OUT:
          ----                                     ----
              STO-SS =          54.1251                STO-SS =          54.1251     STORAGE                          
              STO-SY =           0.0000                STO-SY =           0.0000     STORAGE                          
                 WEL =        1196.7205                   WEL =        1196.7205     WEL_0                            
                RCHA =           0.0000                  RCHA =           0.0000     RCH                              
                 CHD =         633.6168                   CHD =         633.6168     CHD_0                            

           TOTAL OUT =        1884.4624             TOTAL OUT =        1884.4624

            IN - OUT =           0.6089              IN - OUT =           0.6089

 PERCENT DISCREPANCY =           0.03     PERCENT DISCREPANCY =           0.03




         TIME SUMMARY AT END OF TIME STEP    1 IN STRESS PERIOD    1
                    SECONDS     MINUTES      HOURS       DAYS        YEARS
                    -----------------------------------------------------------
   TIME STEP LENGTH  86400.      1440.0      24.000      1.0000     2.73785E-03
 STRESS PERIOD TIME  86400.      1440.0      24.000      1.0000     2.73785E-03
         TOTAL TIME  86400.      1440.0      24.000      1.0000     2.73785E-03


end timestep

