                                   MODFLOW 6
                U.S. GEOLOGICAL SURVEY MODULAR HYDROLOGIC MODEL
                          GROUNDWATER FLOW MODEL (GWF)
                        VERSION 6.4.1 Release 12/09/2022

   MODFLOW 6 compiled Dec 09 2022 18:18:37 with Intel(R) Fortran Intel(R) 64
   Compiler Classic for applications running on Intel(R) 64, Version 2021.7.0
                             Build 20220726_000000

This software has been approved for release by the U.S. Geological 
Survey (USGS). Although the software has been subjected to rigorous 
review, the USGS reserves the right to update the software as needed 
pursuant to further analysis and review. No warranty, expressed or 
implied, is made by the USGS or the U.S. Government as to the 
functionality of the software and related material nor shall the 
fact of release constitute any such warranty. Furthermore, the 
software is released on condition that neither the USGS nor the U.S. 
Government shall be held liable for any damages resulting from its 
authorized or unauthorized use. Also refer to the USGS Water 
Resources Software User Rights Notice for complete use, copyright, 
and distribution information.


As a work of the United States Government, this USGS product is 
in the public domain within the United States. You can copy, 
modify, distribute, and perform the work, even for commercial 
purposes, all without asking permission. Additionally, USGS 
waives copyright and related rights in the work worldwide 
through CC0 1.0 Universal Public Domain Dedication 
(https://creativecommons.org/publicdomain/zero/1.0/).

The following GNU Lesser General Public License (LGPL) libraries
are used in this USGS product:

    SPARSKIT version 2.0
      ilut, luson, and qsplit 
      (https://www-users.cse.umn.edu/~saad/software/SPARSKIT/)

    RCM - Reverse Cuthill McKee Ordering
      (https://people.math.sc.edu/Burkardt/f_src/rcm/rcm.html)

    BLAS - Basic Linear Algebra Subprograms Level 1
      (https://people.math.sc.edu/Burkardt/f_src/blas1_d/blas1_d.html)

    SPARSEKIT - Sparse Matrix Utility Package
      amux, dperm, dvperm, rperm, and cperm
      (https://people.sc.fsu.edu/~jburkardt/f77_src/sparsekit/sparsekit.html)

The following BSD-3 License libraries are used in this USGS product:

    Modern Fortran DAG Library
      Copyright (c) 2018, Jacob Williams
      All rights reserved.
      (https://github.com/jacobwilliams/daglib)

MODFLOW 6 compiler options: /Isrc\libmf6core.a.p /Isrc /I..\src
/Isrc\libmf6_external.a.p /MTd /nologo /warn:general /warn:truncated_source
/stand:f08 /Zi /traceback /O2 /fpe:0 /heap-arrays:0 /traceback /fpp
/Qdiag-disable:7416 /Qdiag-disable:7025 /Qdiag-disable:5268
/Fdsrc\libmf6core.a.p\Utilities_compilerversion.F90.pdb
/module:src\libmf6core.a.p
/Fosrc/libmf6core.a.p/Utilities_compilerversion.F90.obj /c

System command used to initiate simulation:
"C:\Users\ksil8584\OneDrive - The University of Sydney (Staff)\Documents\Modflow\mf6.4.1\bin\mf6.exe"

MODFLOW was compiled using uniform precision.

Real Variables
  KIND: 8
  TINY (smallest non-zero value):    2.225074-308
  HUGE (largest value):    1.797693+308
  PRECISION: 15
  SIZE IN BITS: 64

Integer Variables
  KIND: 4
  HUGE (largest value): 2147483647
  SIZE IN BITS: 32

Long Integer Variables
  KIND: 8
  HUGE (largest value): 9223372036854775807
  SIZE IN BITS: 64

Logical Variables
  KIND: 4
  SIZE IN BITS: 32
 

 OPENED FloPy_Test1.dis
 FILE TYPE:DIS6                   UNIT 1005   STATUS:OLD                 
 FORMAT:FORMATTED              ACCESS:SEQUENTIAL          
 ACTION:READ                


 OPENED FloPy_Test1.ic
 FILE TYPE:IC6                    UNIT 1006   STATUS:OLD                 
 FORMAT:FORMATTED              ACCESS:SEQUENTIAL          
 ACTION:READ                


 OPENED FloPy_Test1.npf
 FILE TYPE:NPF6                   UNIT 1007   STATUS:OLD                 
 FORMAT:FORMATTED              ACCESS:SEQUENTIAL          
 ACTION:READ                


 OPENED FloPy_Test1.sto
 FILE TYPE:STO6                   UNIT 1008   STATUS:OLD                 
 FORMAT:FORMATTED              ACCESS:SEQUENTIAL          
 ACTION:READ                


 OPENED FloPy_Test1.chd
 FILE TYPE:CHD6                   UNIT 1009   STATUS:OLD                 
 FORMAT:FORMATTED              ACCESS:SEQUENTIAL          
 ACTION:READ                


 OPENED FloPy_Test1.wel
 FILE TYPE:WEL6                   UNIT 1010   STATUS:OLD                 
 FORMAT:FORMATTED              ACCESS:SEQUENTIAL          
 ACTION:READ                


 OPENED FloPy_Test1.rcha
 FILE TYPE:RCH6                   UNIT 1011   STATUS:OLD                 
 FORMAT:FORMATTED              ACCESS:SEQUENTIAL          
 ACTION:READ                


 OPENED FloPy_Test1.oc
 FILE TYPE:OC6                    UNIT 1012   STATUS:OLD                 
 FORMAT:FORMATTED              ACCESS:SEQUENTIAL          
 ACTION:READ                

 NAMEFILE OPTIONS:
    FLOWS WILL BE SAVED TO BUDGET FILE SPECIFIED IN OUTPUT CONTROL
    NEWTON-RAPHSON method enabled for the model.
    NEWTON-RAPHSON UNDER-RELAXATION based on the bottom elevation of the model will be applied to the model.

 DIS -- STRUCTURED GRID DISCRETIZATION PACKAGE, VERSION 2 : 3/27/2014 - INPUT READ FROM UNIT 1005

 Loading input for FLOPY_TEST1/DIS
 # File generated by Flopy version 3.3.6 on 06/27/2023 at 17:04:04.
   NLAY = 10
   NROW = 101
   NCOL = 101
   DELR = 4.000000000000000
   DELC = 4.000000000000000
   TOP = .000000000000000
   BOTM = variable 3D double precision array ranging from -50.00000000000000 to -5.000000000000000
 Loading input complete...


 NPF -- NODE PROPERTY FLOW PACKAGE, VERSION 1, 3/30/2015 INPUT READ FROM UNIT 1007

 Loading input for FLOPY_TEST1/NPF
 # File generated by Flopy version 3.3.6 on 06/27/2023 at 17:04:04.
   ICELLTYPE = 1
   K = 1.000000000000000
 Loading input complete...

 Setting Discretization Options
 End Setting Discretization Options

 Setting Discretization Dimensions
    NLAY = 10
    NROW = 101
    NCOL = 101
 End Setting Discretization Dimensions

 Setting Discretization Griddata
    DELR set from input file
    DELC set from input file
    TOP set from input file
    BOTM set from input file
 End Setting Discretization Griddata

 Setting NPF Options
 End Setting NPF Options

 Setting NPF Griddata
    ICELLTYPE set from input file
    K set from input file
    K33 not provided.  Setting K33 = K.
    K22 not provided.  Setting K22 = K.
 End Setting NPF Griddata


 WEL   -- WEL PACKAGE, VERSION 8, 2/22/2014 INPUT READ FROM UNIT 1010
 # File generated by Flopy version 3.3.6 on 06/27/2023 at 17:04:04.

 PROCESSING WEL OPTIONS
 END OF WEL OPTIONS

 PROCESSING WEL DIMENSIONS
    MAXBOUND =       2
 END OF WEL DIMENSIONS

 RCH   -- RCH PACKAGE, VERSION 8, 2/22/2014 INPUT READ FROM UNIT 1011
 # File generated by Flopy version 3.3.6 on 06/27/2023 at 17:04:04.

 PROCESSING RCH OPTIONS
    RECHARGE INPUT WILL BE READ AS ARRAY(S).
 END OF RCHA OPTIONS

 CHD   -- CHD PACKAGE, VERSION 8, 2/22/2014 INPUT READ FROM UNIT 1009
 # File generated by Flopy version 3.3.6 on 06/27/2023 at 17:04:04.

 PROCESSING CHD OPTIONS
 END OF CHD OPTIONS

 PROCESSING CHD DIMENSIONS
    MAXBOUND =     400
 END OF CHD DIMENSIONS

 IC -- INITIAL CONDITIONS PACKAGE, VERSION 8, 3/28/2015 INPUT READ FROM UNIT 1006
 # File generated by Flopy version 3.3.6 on 06/27/2023 at 17:04:04.
 PROCESSING GRIDDATA
 END PROCESSING GRIDDATA

 STO -- STORAGE PACKAGE, VERSION 1, 5/19/2014 INPUT READ FROM UNIT 1008


 # File generated by Flopy version 3.3.6 on 06/27/2023 at 17:04:04.
 PROCESSING STORAGE OPTIONS
 END OF STORAGE OPTIONS
 PROCESSING GRIDDATA

                 ICONVERT = 1

         SPECIFIC STORAGE =  0.1000000E-04

           SPECIFIC YIELD =  0.1500000    
 END PROCESSING GRIDDATA
    BINARY GRID INFORMATION WILL BE WRITTEN TO:
      UNIT NUMBER: 1014
      FILE NAME: C:\Users\ksil8584\OneDrive - The University of Sydney (Staff)\Documents\Modflow\FloPy models\FloPy_T3\FloPy_Test1.dis.grb

 OPENED C:\Users\ksil8584\OneDrive - The University of Sydney (Staff)\Documents\Modflow\FloPy models\FloPy_T3\FloPy_Test1.dis.grb
 FILE TYPE:DATA(BINARY)   UNIT 1014   STATUS:REPLACE             
 FORMAT:UNFORMATTED            ACCESS:STREAM              
 ACTION:READWRITE           

      THE LAST TIME STEP WILL BE PRINTED
      THE LAST TIME STEP WILL BE PRINTED
 # File generated by Flopy version 3.3.6 on 06/27/2023 at 17:04:04.

 PROCESSING OC OPTIONS

    BUDGET INFORMATION WILL BE WRITTEN TO:
      UNIT NUMBER: 1015
      FILE NAME: FloPy_Test1.cbb

 OPENED FloPy_Test1.cbb
 FILE TYPE:DATA(BINARY)   UNIT 1015   STATUS:REPLACE             
 FORMAT:UNFORMATTED            ACCESS:STREAM              
 ACTION:READWRITE           

    HEAD INFORMATION WILL BE WRITTEN TO:
      UNIT NUMBER: 1016
      FILE NAME: FloPy_Test1.hds

 OPENED FloPy_Test1.hds
 FILE TYPE:DATA(BINARY)   UNIT 1016   STATUS:REPLACE             
 FORMAT:UNFORMATTED            ACCESS:STREAM              
 ACTION:READWRITE           

 END OF OC OPTIONS

start timestep kper="1" kstp="1" mode="normal"


 BEGIN READING OUTPUT CONTROL FOR STRESS PERIOD 1
      ALL TIME STEPS WILL BE SAVED
      ALL TIME STEPS WILL BE SAVED
      THE LAST TIME STEP WILL BE PRINTED

 END READING OUTPUT CONTROL FOR STRESS PERIOD 1


 STRESS PERIOD 1 IS TRANSIENT


                 RECHARGE =   0.000000    
 UBDSV1 SAVING           STO-SS ON UNIT   1015 AT TIME STEP      1, STRESS PERIOD      1
 UBDSV1 SAVING           STO-SY ON UNIT   1015 AT TIME STEP      1, STRESS PERIOD      1
 UBDSV1 SAVING     FLOW-JA-FACE ON UNIT   1015 AT TIME STEP      1, STRESS PERIOD      1
 UBDSV06 SAVING              WEL IN MODEL FLOPY_TEST1      PACKAGE FLOPY_TEST1     CONNECTED TO MODEL FLOPY_TEST1      PACKAGE WEL_0            ON UNIT   1015 AT TIME STEP      1, STRESS PERIOD      1
 UBDSV06 SAVING             RCHA IN MODEL FLOPY_TEST1      PACKAGE FLOPY_TEST1     CONNECTED TO MODEL FLOPY_TEST1      PACKAGE RCH              ON UNIT   1015 AT TIME STEP      1, STRESS PERIOD      1
 UBDSV06 SAVING              CHD IN MODEL FLOPY_TEST1      PACKAGE FLOPY_TEST1     CONNECTED TO MODEL FLOPY_TEST1      PACKAGE CHD_0            ON UNIT   1015 AT TIME STEP      1, STRESS PERIOD      1
1
  HEAD IN LAYER   1 AT END OF TIME STEP   1 IN STRESS PERIOD    1
  ---------------------------------------------------------------------------

            1           2           3           4           5           6           7           8           9          10
           11          12          13          14          15          16          17          18          19          20
           21          22          23          24          25          26          27          28          29          30
           31          32          33          34          35          36          37          38          39          40
           41          42          43          44          45          46          47          48          49          50
           51          52          53          54          55          56          57          58          59          60
           61          62          63          64          65          66          67          68          69          70
           71          72          73          74          75          76          77          78          79          80
           81          82          83          84          85          86          87          88          89          90
           91          92          93          94          95          96          97          98          99         100
          101
 ........................................................................................................................
   1    100.0       100.0       100.0       100.0       100.0       100.0       100.0       100.0       100.0       100.0    
        100.0       100.0       100.0       100.0       100.0       100.0       100.0       100.0       100.0       100.0    
        100.0       100.0       100.0       100.0       100.0       100.0       100.0       100.0       100.0       100.0    
        100.0       100.0       100.0       100.0       100.0       100.0       100.0       100.0       100.0       100.0    
        100.0       100.0       100.0       100.0       100.0       100.0       100.0       100.0       100.0       100.0    
        100.0       100.0       100.0       100.0       100.0       100.0       100.0       100.0       100.0       100.0    
        100.0       100.0       100.0       100.0       100.0       100.0       100.0       100.0       100.0       100.0    
        100.0       100.0       100.0       100.0       100.0       100.0       100.0       100.0       100.0       100.0    
        100.0       100.0       100.0       100.0       100.0       100.0       100.0       100.0       100.0       100.0    
        100.0       100.0       100.0       100.0       100.0       100.0       100.0       100.0       100.0       100.0    
        100.0    
   2    100.0       99.79       99.67       99.60       99.55       99.51       99.47       99.44       99.41       99.38    
        99.35       99.32       99.29       99.27       99.24       99.22       99.19       99.17       99.15       99.13    
        99.11       99.10       99.08       99.07       99.06       99.05       99.04       99.03       99.03       99.02    
        99.02       99.02       99.02       99.02       99.03       99.03       99.03       99.04       99.04       99.05    
        99.05       99.06       99.06       99.07       99.07       99.07       99.08       99.08       99.08       99.08    
        99.08       99.08       99.08       99.08       99.08       99.07       99.07       99.07       99.06       99.06    
        99.05       99.05       99.04       99.04       99.03       99.03       99.03       99.02       99.02       99.02    
        99.02       99.02       99.03       99.03       99.04       99.05       99.06       99.07       99.08       99.10    
        99.11       99.13       99.15       99.17       99.19       99.22       99.24       99.27       99.29       99.32    
        99.35       99.38       99.41       99.44       99.47       99.51       99.55       99.60       99.67       99.79    
        100.0    
   3    100.0       99.67       99.49       99.36       99.27       99.20       99.13       99.08       99.02       98.97    
        98.92       98.88       98.83       98.79       98.75       98.71       98.67       98.63       98.59       98.56    
        98.53       98.50       98.48       98.46       98.44       98.42       98.41       98.39       98.39       98.38    
        98.38       98.38       98.38       98.38       98.39       98.39       98.40       98.41       98.42       98.43    
        98.44       98.44       98.45       98.46       98.47       98.47       98.48       98.48       98.49       98.49    
        98.49       98.49       98.49       98.48       98.48       98.47       98.47       98.46       98.45       98.44    
        98.44       98.43       98.42       98.41       98.40       98.39       98.39       98.38       98.38       98.38    
        98.38       98.38       98.39       98.39       98.41       98.42       98.44       98.46       98.48       98.50    
        98.53       98.56       98.59       98.63       98.67       98.71       98.75       98.79       98.83       98.88    
        98.92       98.97       99.02       99.08       99.13       99.20       99.27       99.36       99.49       99.67    
        100.0    
   4    100.0       99.60       99.36       99.20       99.08       98.98       98.89       98.82       98.75       98.68    
        98.62       98.56       98.50       98.44       98.38       98.33       98.28       98.23       98.19       98.14    
        98.10       98.07       98.03       98.00       97.98       97.96       97.94       97.93       97.92       97.91    
        97.91       97.91       97.91       97.91       97.92       97.93       97.94       97.95       97.96       97.97    
        97.99       98.00       98.01       98.02       98.03       98.04       98.04       98.05       98.05       98.05    
        98.06       98.05       98.05       98.05       98.04       98.04       98.03       98.02       98.01       98.00    
        97.99       97.97       97.96       97.95       97.94       97.93       97.92       97.91       97.91       97.91    
        97.91       97.91       97.92       97.93       97.94       97.96       97.98       98.00       98.03       98.07    
        98.10       98.14       98.19       98.23       98.28       98.33       98.38       98.44       98.50       98.56    
        98.62       98.68       98.75       98.82       98.89       98.98       99.08       99.20       99.36       99.60    
        100.0    
   5    100.0       99.55       99.27       99.08       98.93       98.81       98.71       98.62       98.53       98.45    
        98.37       98.30       98.23       98.16       98.10       98.03       97.97       97.91       97.86       97.81    
        97.76       97.72       97.68       97.64       97.61       97.59       97.57       97.55       97.54       97.53    
        97.53       97.53       97.53       97.54       97.55       97.56       97.57       97.59       97.60       97.62    
        97.63       97.64       97.66       97.67       97.68       97.69       97.70       97.71       97.71       97.71    
        97.72       97.71       97.71       97.71       97.70       97.69       97.68       97.67       97.66       97.64    
        97.63       97.62       97.60       97.59       97.57       97.56       97.55       97.54       97.53       97.53    
        97.53       97.53       97.54       97.55       97.57       97.59       97.61       97.64       97.68       97.72    
        97.76       97.81       97.86       97.91       97.97       98.03       98.10       98.16       98.23       98.30    
        98.37       98.45       98.53       98.62       98.71       98.81       98.93       99.08       99.27       99.55    
        100.0    
   6    100.0       99.51       99.20       98.98       98.81       98.68       98.56       98.45       98.35       98.26    
        98.17       98.09       98.01       97.93       97.85       97.78       97.71       97.64       97.58       97.52    
        97.46       97.41       97.37       97.33       97.30       97.27       97.24       97.23       97.21       97.21    
        97.20       97.21       97.21       97.22       97.23       97.25       97.26       97.28       97.30       97.31    
        97.33       97.35       97.37       97.38       97.39       97.41       97.42       97.42       97.43       97.43    
        97.43       97.43       97.43       97.42       97.42       97.41       97.39       97.38       97.37       97.35    
        97.33       97.31       97.30       97.28       97.26       97.25       97.23       97.22       97.21       97.21    
        97.20       97.21       97.21       97.23       97.24       97.27       97.30       97.33       97.37       97.41    
        97.46       97.52       97.58       97.64       97.71       97.78       97.85       97.93       98.01       98.09    
        98.17       98.26       98.35       98.45       98.56       98.68       98.81       98.98       99.20       99.51    
        100.0    
   7    100.0       99.47       99.14       98.90       98.71       98.56       98.43       98.31       98.20       98.09    
        97.99       97.90       97.81       97.72       97.64       97.55       97.47       97.40       97.33       97.26    
        97.20       97.14       97.09       97.05       97.01       96.98       96.95       96.94       96.92       96.92    
        96.92       96.92       96.93       96.94       96.95       96.97       96.99       97.01       97.03       97.05    
        97.07       97.09       97.11       97.13       97.14       97.16       97.17       97.18       97.18       97.19    
        97.19       97.19       97.18       97.18       97.17       97.16       97.14       97.13       97.11       97.09    
        97.07       97.05       97.03       97.01       96.99       96.97       96.95       96.94       96.93       96.92    
        96.92       96.92       96.92       96.94       96.95       96.98       97.01       97.05       97.09       97.14    
        97.20       97.26       97.33       97.40       97.47       97.55       97.64       97.72       97.81       97.90    
        97.99       98.09       98.20       98.31       98.43       98.56       98.71       98.90       99.14       99.47    
        100.0    
   8    100.0       99.44       99.08       98.82       98.62       98.45       98.31       98.18       98.06       97.94    
        97.83       97.73       97.63       97.53       97.44       97.35       97.26       97.18       97.10       97.02    
        96.95       96.89       96.84       96.79       96.75       96.71       96.68       96.67       96.65       96.65    
        96.65       96.65       96.66       96.68       96.70       96.72       96.74       96.76       96.79       96.81    
        96.84       96.86       96.88       96.90       96.92       96.93       96.95       96.96       96.96       96.97    
        96.97       96.97       96.96       96.96       96.95       96.93       96.92       96.90       96.88       96.86    
        96.84       96.81       96.79       96.76       96.74       96.72       96.70       96.68       96.66       96.65    
        96.65       96.65       96.65       96.67       96.68       96.71       96.75       96.79       96.84       96.89    
        96.95       97.02       97.10       97.18       97.26       97.35       97.44       97.53       97.63       97.73    
        97.83       97.94       98.06       98.18       98.31       98.45       98.62       98.82       99.08       99.44    
        100.0    
   9    100.0       99.41       99.03       98.75       98.54       98.36       98.20       98.06       97.93       97.80    
        97.69       97.57       97.46       97.36       97.25       97.15       97.06       96.96       96.88       96.80    
        96.72       96.65       96.59       96.54       96.49       96.46       96.43       96.41       96.40       96.39    
        96.39       96.40       96.42       96.43       96.46       96.48       96.51       96.53       96.56       96.59    
        96.62       96.65       96.67       96.69       96.71       96.73       96.75       96.76       96.77       96.77    
        96.77       96.77       96.77       96.76       96.75       96.73       96.71       96.69       96.67       96.65    
        96.62       96.59       96.56       96.53       96.51       96.48       96.46       96.43       96.42       96.40    
        96.39       96.39       96.40       96.41       96.43       96.46       96.49       96.54       96.59       96.65    
        96.72       96.80       96.88       96.96       97.06       97.15       97.25       97.36       97.46       97.57    
        97.69       97.80       97.93       98.06       98.20       98.36       98.54       98.75       99.03       99.41    
        100.0    
  10    100.0       99.38       98.98       98.69       98.46       98.27       98.10       97.95       97.81       97.67    
        97.55       97.42       97.30       97.19       97.07       96.97       96.86       96.76       96.66       96.58    
        96.49       96.42       96.35       96.29       96.25       96.21       96.18       96.16       96.15       96.14    
        96.15       96.16       96.18       96.20       96.23       96.26       96.29       96.32       96.35       96.39    
        96.42       96.45       96.48       96.50       96.52       96.54       96.56       96.57       96.58       96.59    
        96.59       96.59       96.58       96.57       96.56       96.54       96.52       96.50       96.48       96.45    
        96.42       96.39       96.35       96.32       96.29       96.26       96.23       96.20       96.18       96.16    
        96.15       96.14       96.15       96.16       96.18       96.21       96.25       96.29       96.35       96.42    
        96.49       96.58       96.66       96.76       96.86       96.97       97.07       97.19       97.30       97.42    
        97.55       97.67       97.81       97.95       98.10       98.27       98.46       98.69       98.98       99.38    
        100.0    
  11    100.0       99.35       98.94       98.63       98.39       98.19       98.01       97.85       97.69       97.55    
        97.41       97.28       97.15       97.03       96.90       96.79       96.67       96.56       96.46       96.36    
        96.27       96.19       96.12       96.05       96.00       95.96       95.93       95.91       95.90       95.90    
        95.91       95.92       95.95       95.97       96.00       96.04       96.08       96.11       96.15       96.19    
        96.23       96.26       96.29       96.32       96.35       96.37       96.39       96.40       96.41       96.42    
        96.42       96.42       96.41       96.40       96.39       96.37       96.35       96.32       96.29       96.26    
        96.23       96.19       96.15       96.11       96.08       96.04       96.00       95.97       95.95       95.92    
        95.91       95.90       95.90       95.91       95.93       95.96       96.00       96.05       96.12       96.19    
        96.27       96.36       96.46       96.56       96.67       96.79       96.90       97.03       97.15       97.28    
        97.41       97.55       97.69       97.85       98.01       98.19       98.39       98.63       98.94       99.35    
        100.0    
  12    100.0       99.33       98.89       98.57       98.32       98.11       97.92       97.75       97.59       97.43    
        97.29       97.14       97.01       96.87       96.74       96.61       96.49       96.37       96.25       96.15    
        96.05       95.96       95.88       95.81       95.76       95.71       95.68       95.66       95.66       95.66    
        95.67       95.69       95.72       95.75       95.79       95.83       95.87       95.92       95.96       96.00    
        96.04       96.08       96.12       96.15       96.18       96.20       96.22       96.24       96.25       96.26    
        96.26       96.26       96.25       96.24       96.22       96.20       96.18       96.15       96.12       96.08    
        96.04       96.00       95.96       95.92       95.87       95.83       95.79       95.75       95.72       95.69    
        95.67       95.66       95.66       95.66       95.68       95.71       95.76       95.81       95.88       95.96    
        96.05       96.15       96.25       96.37       96.49       96.61       96.74       96.87       97.01       97.14    
        97.29       97.43       97.59       97.75       97.92       98.11       98.32       98.57       98.89       99.33    
        100.0    
  13    100.0       99.30       98.85       98.52       98.25       98.03       97.83       97.65       97.48       97.32    
        97.16       97.01       96.86       96.72       96.58       96.44       96.30       96.17       96.05       95.93    
        95.83       95.73       95.65       95.57       95.51       95.47       95.44       95.42       95.41       95.42    
        95.43       95.46       95.49       95.53       95.58       95.63       95.68       95.73       95.78       95.82    
        95.87       95.91       95.95       95.99       96.02       96.05       96.07       96.09       96.10       96.11    
        96.11       96.11       96.10       96.09       96.07       96.05       96.02       95.99       95.95       95.91    
        95.87       95.82       95.78       95.73       95.68       95.63       95.58       95.53       95.49       95.46    
        95.43       95.42       95.41       95.42       95.44       95.47       95.51       95.57       95.65       95.73    
        95.83       95.93       96.05       96.17       96.30       96.44       96.58       96.72       96.86       97.01    
        97.16       97.32       97.48       97.65       97.83       98.03       98.25       98.52       98.85       99.30    
        100.0    
  14    100.0       99.28       98.81       98.47       98.19       97.96       97.75       97.56       97.38       97.21    
        97.05       96.88       96.73       96.57       96.42       96.27       96.12       95.98       95.85       95.72    
        95.61       95.50       95.41       95.33       95.27       95.22       95.19       95.17       95.17       95.18    
        95.20       95.23       95.27       95.32       95.37       95.43       95.48       95.54       95.60       95.65    
        95.70       95.75       95.80       95.84       95.87       95.90       95.93       95.95       95.96       95.97    
        95.97       95.97       95.96       95.95       95.93       95.90       95.87       95.84       95.80       95.75    
        95.70       95.65       95.60       95.54       95.48       95.43       95.37       95.32       95.27       95.23    
        95.20       95.18       95.17       95.17       95.19       95.22       95.27       95.33       95.41       95.50    
        95.61       95.72       95.85       95.98       96.12       96.27       96.42       96.57       96.73       96.88    
        97.05       97.21       97.38       97.56       97.75       97.96       98.19       98.47       98.81       99.28    
        100.0    
  15    100.0       99.26       98.77       98.42       98.13       97.89       97.67       97.47       97.29       97.11    
        96.93       96.76       96.59       96.43       96.26       96.10       95.95       95.79       95.65       95.51    
        95.39       95.27       95.17       95.09       95.02       94.97       94.94       94.92       94.92       94.94    
        94.97       95.01       95.05       95.11       95.17       95.23       95.30       95.36       95.43       95.49    
        95.54       95.60       95.65       95.69       95.73       95.76       95.79       95.81       95.83       95.84    
        95.84       95.84       95.83       95.81       95.79       95.76       95.73       95.69       95.65       95.60    
        95.54       95.49       95.43       95.36       95.30       95.23       95.17       95.11       95.05       95.01    
        94.97       94.94       94.92       94.92       94.94       94.97       95.02       95.09       95.17       95.27    
        95.39       95.51       95.65       95.79       95.95       96.10       96.26       96.43       96.59       96.76    
        96.93       97.11       97.29       97.47       97.67       97.89       98.13       98.42       98.77       99.26    
        100.0    
  16    100.0       99.24       98.74       98.37       98.07       97.82       97.60       97.39       97.20       97.01    
        96.82       96.64       96.46       96.29       96.11       95.94       95.77       95.61       95.45       95.31    
        95.17       95.05       94.94       94.85       94.77       94.72       94.69       94.67       94.68       94.70    
        94.74       94.78       94.84       94.90       94.97       95.05       95.12       95.19       95.26       95.33    
        95.39       95.45       95.51       95.55       95.60       95.63       95.66       95.68       95.70       95.71    
        95.71       95.71       95.70       95.68       95.66       95.63       95.60       95.55       95.51       95.45    
        95.39       95.33       95.26       95.19       95.12       95.05       94.97       94.90       94.84       94.78    
        94.74       94.70       94.68       94.67       94.69       94.72       94.77       94.85       94.94       95.05    
        95.17       95.31       95.45       95.61       95.77       95.94       96.11       96.29       96.46       96.64    
        96.82       97.01       97.20       97.39       97.60       97.82       98.07       98.37       98.74       99.24    
        100.0    
  17    100.0       99.22       98.70       98.32       98.02       97.76       97.53       97.31       97.11       96.91    
        96.72       96.53       96.34       96.15       95.97       95.78       95.60       95.43       95.26       95.10    
        94.95       94.82       94.70       94.60       94.53       94.47       94.44       94.43       94.44       94.46    
        94.51       94.56       94.63       94.70       94.78       94.87       94.95       95.03       95.11       95.18    
        95.25       95.31       95.37       95.43       95.47       95.51       95.54       95.57       95.58       95.60    
        95.60       95.60       95.58       95.57       95.54       95.51       95.47       95.43       95.37       95.31    
        95.25       95.18       95.11       95.03       94.95       94.87       94.78       94.70       94.63       94.56    
        94.51       94.46       94.44       94.43       94.44       94.47       94.53       94.60       94.70       94.82    
        94.95       95.10       95.26       95.43       95.60       95.78       95.97       96.15       96.34       96.53    
        96.72       96.91       97.11       97.31       97.53       97.76       98.02       98.32       98.70       99.22    
        100.0    
  18    100.0       99.20       98.67       98.28       97.97       97.70       97.46       97.24       97.03       96.82    
        96.62       96.42       96.22       96.02       95.83       95.63       95.44       95.25       95.07       94.90    
        94.74       94.60       94.47       94.36       94.28       94.22       94.19       94.18       94.20       94.23    
        94.28       94.35       94.43       94.51       94.60       94.69       94.78       94.87       94.96       95.04    
        95.12       95.19       95.25       95.30       95.35       95.40       95.43       95.46       95.48       95.49    
        95.49       95.49       95.48       95.46       95.43       95.40       95.35       95.30       95.25       95.19    
        95.12       95.04       94.96       94.87       94.78       94.69       94.60       94.51       94.43       94.35    
        94.28       94.23       94.20       94.18       94.19       94.22       94.28       94.36       94.47       94.60    
        94.74       94.90       95.07       95.25       95.44       95.63       95.83       96.02       96.22       96.42    
        96.62       96.82       97.03       97.24       97.46       97.70       97.97       98.28       98.67       99.20    
        100.0    
  19    100.0       99.18       98.64       98.24       97.92       97.65       97.40       97.17       96.95       96.74    
        96.53       96.32       96.11       95.91       95.70       95.49       95.29       95.09       94.89       94.71    
        94.54       94.38       94.24       94.13       94.04       93.98       93.95       93.94       93.96       94.01    
        94.07       94.14       94.23       94.33       94.43       94.53       94.63       94.73       94.82       94.91    
        94.99       95.07       95.13       95.19       95.25       95.29       95.33       95.36       95.38       95.39    
        95.39       95.39       95.38       95.36       95.33       95.29       95.25       95.19       95.13       95.07    
        94.99       94.91       94.82       94.73       94.63       94.53       94.43       94.33       94.23       94.14    
        94.07       94.01       93.96       93.94       93.95       93.98       94.04       94.13       94.24       94.38    
        94.54       94.71       94.89       95.09       95.29       95.49       95.70       95.91       96.11       96.32    
        96.53       96.74       96.95       97.17       97.40       97.65       97.92       98.24       98.64       99.18    
        100.0    
  20    100.0       99.16       98.61       98.21       97.88       97.60       97.35       97.11       96.88       96.66    
        96.45       96.23       96.01       95.79       95.58       95.36       95.14       94.93       94.72       94.53    
        94.34       94.17       94.03       93.91       93.81       93.75       93.72       93.72       93.74       93.79    
        93.87       93.95       94.05       94.16       94.27       94.38       94.49       94.59       94.69       94.79    
        94.88       94.96       95.03       95.09       95.15       95.19       95.23       95.26       95.28       95.30    
        95.30       95.30       95.28       95.26       95.23       95.19       95.15       95.09       95.03       94.96    
        94.88       94.79       94.69       94.59       94.49       94.38       94.27       94.16       94.05       93.95    
        93.87       93.79       93.74       93.72       93.72       93.75       93.81       93.91       94.03       94.17    
        94.34       94.53       94.72       94.93       95.14       95.36       95.58       95.79       96.01       96.23    
        96.45       96.66       96.88       97.11       97.35       97.60       97.88       98.21       98.61       99.16    
        100.0    
  21    100.0       99.15       98.59       98.18       97.84       97.56       97.30       97.06       96.82       96.60    
        96.37       96.15       95.92       95.70       95.47       95.24       95.01       94.79       94.57       94.36    
        94.16       93.98       93.83       93.70       93.60       93.54       93.50       93.51       93.54       93.60    
        93.68       93.77       93.88       94.00       94.12       94.24       94.36       94.47       94.58       94.68    
        94.77       94.86       94.93       95.00       95.06       95.11       95.15       95.18       95.20       95.22    
        95.22       95.22       95.20       95.18       95.15       95.11       95.06       95.00       94.93       94.86    
        94.77       94.68       94.58       94.47       94.36       94.24       94.12       94.00       93.88       93.77    
        93.68       93.60       93.54       93.51       93.50       93.54       93.60       93.70       93.83       93.98    
        94.16       94.36       94.57       94.79       95.01       95.24       95.47       95.70       95.92       96.15    
        96.37       96.60       96.82       97.06       97.30       97.56       97.84       98.18       98.59       99.15    
        100.0    
  22    100.0       99.14       98.57       98.15       97.81       97.52       97.25       97.01       96.77       96.54    
        96.31       96.08       95.84       95.61       95.37       95.13       94.90       94.66       94.43       94.21    
        94.00       93.81       93.65       93.51       93.41       93.34       93.31       93.32       93.35       93.42    
        93.51       93.62       93.74       93.86       93.99       94.12       94.24       94.36       94.48       94.58    
        94.68       94.77       94.85       94.92       94.98       95.03       95.07       95.11       95.13       95.14    
        95.15       95.14       95.13       95.11       95.07       95.03       94.98       94.92       94.85       94.77    
        94.68       94.58       94.48       94.36       94.24       94.12       93.99       93.86       93.74       93.62    
        93.51       93.42       93.35       93.32       93.31       93.34       93.41       93.51       93.65       93.81    
        94.00       94.21       94.43       94.66       94.90       95.13       95.37       95.61       95.84       96.08    
        96.31       96.54       96.77       97.01       97.25       97.52       97.81       98.15       98.57       99.14    
        100.0    
  23    100.0       99.13       98.55       98.13       97.78       97.49       97.22       96.97       96.72       96.49    
        96.25       96.01       95.78       95.54       95.29       95.05       94.80       94.56       94.32       94.09    
        93.87       93.67       93.50       93.35       93.25       93.18       93.15       93.16       93.20       93.27    
        93.37       93.48       93.61       93.74       93.88       94.02       94.15       94.27       94.39       94.50    
        94.60       94.70       94.78       94.85       94.91       94.97       95.01       95.04       95.07       95.08    
        95.08       95.08       95.07       95.04       95.01       94.97       94.91       94.85       94.78       94.70    
        94.60       94.50       94.39       94.27       94.15       94.02       93.88       93.74       93.61       93.48    
        93.37       93.27       93.20       93.16       93.15       93.18       93.25       93.35       93.50       93.67    
        93.87       94.09       94.32       94.56       94.80       95.05       95.29       95.54       95.78       96.01    
        96.25       96.49       96.72       96.97       97.22       97.49       97.78       98.13       98.55       99.13    
        100.0    
  24    100.0       99.12       98.54       98.11       97.76       97.46       97.19       96.93       96.69       96.45    
        96.21       95.97       95.72       95.48       95.23       94.98       94.72       94.47       94.23       93.99    
        93.76       93.56       93.38       93.23       93.12       93.05       93.02       93.03       93.08       93.15    
        93.26       93.38       93.51       93.65       93.79       93.93       94.07       94.20       94.32       94.44    
        94.54       94.63       94.72       94.79       94.86       94.91       94.95       94.99       95.01       95.03    
        95.03       95.03       95.01       94.99       94.95       94.91       94.86       94.79       94.72       94.63    
        94.54       94.44       94.32       94.20       94.07       93.93       93.79       93.65       93.51       93.38    
        93.26       93.15       93.08       93.03       93.02       93.05       93.12       93.23       93.38       93.56    
        93.76       93.99       94.23       94.47       94.72       94.98       95.23       95.48       95.72       95.97    
        96.21       96.45       96.69       96.93       97.19       97.46       97.76       98.11       98.54       99.12    
        100.0    
  25    100.0       99.11       98.53       98.09       97.74       97.44       97.17       96.91       96.66       96.42    
        96.18       95.93       95.69       95.44       95.18       94.93       94.67       94.41       94.16       93.92    
        93.69       93.48       93.29       93.14       93.03       92.96       92.93       92.94       92.99       93.07    
        93.18       93.30       93.44       93.58       93.73       93.87       94.01       94.14       94.27       94.38    
        94.49       94.59       94.67       94.75       94.81       94.87       94.91       94.94       94.97       94.98    
        94.99       94.98       94.97       94.94       94.91       94.87       94.81       94.75       94.67       94.59    
        94.49       94.38       94.27       94.14       94.01       93.87       93.73       93.58       93.44       93.30    
        93.18       93.07       92.99       92.94       92.93       92.96       93.03       93.14       93.29       93.48    
        93.69       93.92       94.16       94.41       94.67       94.93       95.18       95.44       95.69       95.93    
        96.18       96.42       96.66       96.91       97.17       97.44       97.74       98.09       98.53       99.11    
        100.0    
  26    100.0       99.11       98.52       98.09       97.73       97.43       97.15       96.89       96.65       96.40    
        96.16       95.91       95.66       95.41       95.16       94.90       94.64       94.38       94.13       93.88    
        93.65       93.44       93.25       93.10       92.98       92.91       92.88       92.89       92.94       93.03    
        93.13       93.26       93.40       93.54       93.69       93.83       93.97       94.11       94.23       94.35    
        94.46       94.55       94.64       94.71       94.78       94.83       94.88       94.91       94.94       94.95    
        94.95       94.95       94.94       94.91       94.88       94.83       94.78       94.71       94.64       94.55    
        94.46       94.35       94.23       94.11       93.97       93.83       93.69       93.54       93.40       93.26    
        93.13       93.03       92.94       92.89       92.88       92.91       92.98       93.10       93.25       93.44    
        93.65       93.88       94.13       94.38       94.64       94.90       95.16       95.41       95.66       95.91    
        96.16       96.40       96.65       96.89       97.15       97.43       97.73       98.09       98.52       99.11    
        100.0    
  27    100.0       99.10       98.52       98.08       97.73       97.42       97.15       96.89       96.64       96.39    
        96.15       95.90       95.66       95.40       95.15       94.89       94.64       94.38       94.12       93.88    
        93.65       93.44       93.25       93.10       92.99       92.91       92.88       92.89       92.94       93.02    
        93.13       93.25       93.39       93.53       93.68       93.82       93.96       94.09       94.21       94.33    
        94.44       94.53       94.62       94.69       94.75       94.81       94.85       94.89       94.91       94.93    
        94.93       94.93       94.91       94.89       94.85       94.81       94.75       94.69       94.62       94.53    
        94.44       94.33       94.21       94.09       93.96       93.82       93.68       93.53       93.39       93.25    
        93.13       93.02       92.94       92.89       92.88       92.91       92.99       93.10       93.25       93.44    
        93.65       93.88       94.12       94.38       94.64       94.89       95.15       95.40       95.66       95.90    
        96.15       96.39       96.64       96.89       97.15       97.42       97.73       98.08       98.52       99.10    
        100.0    
  28    100.0       99.10       98.52       98.08       97.73       97.42       97.15       96.89       96.64       96.40    
        96.15       95.91       95.66       95.41       95.16       94.91       94.65       94.40       94.15       93.91    
        93.68       93.47       93.29       93.14       93.03       92.96       92.93       92.93       92.98       93.06    
        93.16       93.28       93.41       93.55       93.69       93.83       93.96       94.09       94.21       94.33    
        94.43       94.52       94.61       94.68       94.74       94.80       94.84       94.87       94.90       94.91    
        94.92       94.91       94.90       94.87       94.84       94.80       94.74       94.68       94.61       94.52    
        94.43       94.33       94.21       94.09       93.96       93.83       93.69       93.55       93.41       93.28    
        93.16       93.06       92.98       92.93       92.93       92.96       93.03       93.14       93.29       93.47    
        93.68       93.91       94.15       94.40       94.65       94.91       95.16       95.41       95.66       95.91    
        96.15       96.40       96.64       96.89       97.15       97.42       97.73       98.08       98.52       99.10    
        100.0    
  29    100.0       99.11       98.52       98.08       97.73       97.43       97.16       96.90       96.65       96.41    
        96.17       95.93       95.69       95.44       95.19       94.94       94.69       94.45       94.20       93.97    
        93.75       93.55       93.37       93.22       93.11       93.04       93.01       93.01       93.06       93.13    
        93.22       93.33       93.46       93.59       93.72       93.86       93.99       94.11       94.23       94.34    
        94.44       94.53       94.61       94.68       94.74       94.80       94.84       94.87       94.89       94.91    
        94.91       94.91       94.89       94.87       94.84       94.80       94.74       94.68       94.61       94.53    
        94.44       94.34       94.23       94.11       93.99       93.86       93.72       93.59       93.46       93.33    
        93.22       93.13       93.06       93.01       93.01       93.04       93.11       93.22       93.37       93.55    
        93.75       93.97       94.20       94.45       94.69       94.94       95.19       95.44       95.69       95.93    
        96.17       96.41       96.65       96.90       97.16       97.43       97.73       98.08       98.52       99.11    
        100.0    
  30    100.0       99.11       98.53       98.09       97.74       97.44       97.17       96.92       96.67       96.43    
        96.20       95.96       95.72       95.48       95.24       95.00       94.75       94.51       94.28       94.05    
        93.84       93.65       93.48       93.34       93.23       93.16       93.13       93.13       93.16       93.23    
        93.31       93.42       93.53       93.65       93.78       93.91       94.03       94.15       94.26       94.36    
        94.46       94.55       94.63       94.69       94.75       94.80       94.85       94.88       94.90       94.91    
        94.92       94.91       94.90       94.88       94.85       94.80       94.75       94.69       94.63       94.55    
        94.46       94.36       94.26       94.15       94.03       93.91       93.78       93.65       93.53       93.42    
        93.31       93.23       93.16       93.13       93.13       93.16       93.23       93.34       93.48       93.65    
        93.84       94.05       94.28       94.51       94.75       95.00       95.24       95.48       95.72       95.96    
        96.20       96.43       96.67       96.92       97.17       97.44       97.74       98.09       98.53       99.11    
        100.0    
  31    100.0       99.12       98.54       98.11       97.76       97.46       97.19       96.94       96.70       96.47    
        96.23       96.00       95.77       95.54       95.30       95.07       94.83       94.60       94.38       94.16    
        93.96       93.78       93.61       93.48       93.38       93.31       93.27       93.27       93.30       93.35    
        93.43       93.52       93.63       93.74       93.86       93.97       94.09       94.20       94.31       94.40    
        94.50       94.58       94.65       94.72       94.78       94.82       94.86       94.89       94.91       94.93    
        94.93       94.93       94.91       94.89       94.86       94.82       94.78       94.72       94.65       94.58    
        94.50       94.40       94.31       94.20       94.09       93.97       93.86       93.74       93.63       93.52    
        93.43       93.35       93.30       93.27       93.27       93.31       93.38       93.48       93.61       93.78    
        93.96       94.16       94.38       94.60       94.83       95.07       95.30       95.54       95.77       96.00    
        96.23       96.47       96.70       96.94       97.19       97.46       97.76       98.11       98.54       99.12    
        100.0    
  32    100.0       99.12       98.55       98.12       97.78       97.49       97.22       96.97       96.74       96.51    
        96.28       96.05       95.83       95.60       95.38       95.15       94.93       94.71       94.49       94.29    
        94.10       93.92       93.77       93.64       93.54       93.48       93.44       93.43       93.45       93.50    
        93.57       93.65       93.74       93.84       93.95       94.06       94.16       94.27       94.36       94.46    
        94.54       94.62       94.69       94.75       94.81       94.85       94.89       94.92       94.94       94.95    
        94.96       94.95       94.94       94.92       94.89       94.85       94.81       94.75       94.69       94.62    
        94.54       94.46       94.36       94.27       94.16       94.06       93.95       93.84       93.74       93.65    
        93.57       93.50       93.45       93.43       93.44       93.48       93.54       93.64       93.77       93.92    
        94.10       94.29       94.49       94.71       94.93       95.15       95.38       95.60       95.83       96.05    
        96.28       96.51       96.74       96.97       97.22       97.49       97.78       98.12       98.55       99.12    
        100.0    
  33    100.0       99.13       98.56       98.14       97.81       97.52       97.25       97.01       96.78       96.56    
        96.33       96.12       95.90       95.68       95.46       95.25       95.03       94.82       94.62       94.43    
        94.25       94.09       93.94       93.82       93.73       93.66       93.62       93.61       93.62       93.66    
        93.72       93.79       93.87       93.96       94.06       94.15       94.25       94.34       94.43       94.52    
        94.60       94.67       94.74       94.79       94.85       94.89       94.92       94.95       94.97       94.98    
        94.99       94.98       94.97       94.95       94.92       94.89       94.85       94.79       94.74       94.67    
        94.60       94.52       94.43       94.34       94.25       94.15       94.06       93.96       93.87       93.79    
        93.72       93.66       93.62       93.61       93.62       93.66       93.73       93.82       93.94       94.09    
        94.25       94.43       94.62       94.82       95.03       95.25       95.46       95.68       95.90       96.12    
        96.33       96.56       96.78       97.01       97.25       97.52       97.81       98.14       98.56       99.13    
        100.0    
  34    100.0       99.14       98.58       98.17       97.83       97.55       97.29       97.06       96.83       96.61    
        96.40       96.18       95.97       95.77       95.56       95.35       95.15       94.95       94.76       94.58    
        94.41       94.26       94.12       94.01       93.92       93.85       93.81       93.80       93.80       93.83    
        93.88       93.94       94.01       94.09       94.17       94.26       94.35       94.43       94.51       94.59    
        94.66       94.73       94.79       94.85       94.89       94.93       94.97       94.99       95.01       95.02    
        95.02       95.02       95.01       94.99       94.97       94.93       94.89       94.85       94.79       94.73    
        94.66       94.59       94.51       94.43       94.35       94.26       94.17       94.09       94.01       93.94    
        93.88       93.83       93.80       93.80       93.81       93.85       93.92       94.01       94.12       94.26    
        94.41       94.58       94.76       94.95       95.15       95.35       95.56       95.77       95.97       96.18    
        96.40       96.61       96.83       97.06       97.29       97.55       97.83       98.17       98.58       99.14    
        100.0    
  35    100.0       99.15       98.60       98.19       97.87       97.59       97.34       97.10       96.88       96.67    
        96.46       96.26       96.06       95.86       95.66       95.46       95.27       95.09       94.91       94.74    
        94.58       94.43       94.31       94.20       94.11       94.05       94.01       93.99       93.99       94.01    
        94.05       94.10       94.16       94.23       94.30       94.38       94.45       94.53       94.60       94.67    
        94.74       94.80       94.86       94.90       94.95       94.99       95.02       95.04       95.06       95.07    
        95.07       95.07       95.06       95.04       95.02       94.99       94.95       94.90       94.86       94.80    
        94.74       94.67       94.60       94.53       94.45       94.38       94.30       94.23       94.16       94.10    
        94.05       94.01       93.99       93.99       94.01       94.05       94.11       94.20       94.31       94.43    
        94.58       94.74       94.91       95.09       95.27       95.46       95.66       95.86       96.06       96.26    
        96.46       96.67       96.88       97.10       97.34       97.59       97.87       98.19       98.60       99.15    
        100.0    
  36    100.0       99.17       98.62       98.22       97.90       97.63       97.38       97.16       96.94       96.74    
        96.54       96.34       96.15       95.96       95.77       95.58       95.40       95.22       95.06       94.90    
        94.75       94.61       94.49       94.39       94.31       94.25       94.21       94.18       94.18       94.19    
        94.22       94.26       94.31       94.37       94.43       94.50       94.56       94.63       94.70       94.76    
        94.82       94.88       94.93       94.97       95.01       95.04       95.07       95.09       95.11       95.12    
        95.12       95.12       95.11       95.09       95.07       95.04       95.01       94.97       94.93       94.88    
        94.82       94.76       94.70       94.63       94.56       94.50       94.43       94.37       94.31       94.26    
        94.22       94.19       94.18       94.18       94.21       94.25       94.31       94.39       94.49       94.61    
        94.75       94.90       95.06       95.22       95.40       95.58       95.77       95.96       96.15       96.34    
        96.54       96.74       96.94       97.16       97.38       97.63       97.90       98.22       98.62       99.17    
        100.0    
  37    100.0       99.18       98.65       98.26       97.94       97.67       97.43       97.21       97.01       96.81    
        96.61       96.42       96.24       96.06       95.88       95.70       95.53       95.37       95.21       95.06    
        94.92       94.79       94.68       94.59       94.51       94.44       94.40       94.38       94.37       94.37    
        94.39       94.42       94.47       94.51       94.57       94.62       94.68       94.74       94.80       94.85    
        94.91       94.96       95.00       95.04       95.08       95.11       95.13       95.15       95.17       95.18    
        95.18       95.18       95.17       95.15       95.13       95.11       95.08       95.04       95.00       94.96    
        94.91       94.85       94.80       94.74       94.68       94.62       94.57       94.51       94.47       94.42    
        94.39       94.37       94.37       94.38       94.40       94.44       94.51       94.59       94.68       94.79    
        94.92       95.06       95.21       95.37       95.53       95.70       95.88       96.06       96.24       96.42    
        96.61       96.81       97.01       97.21       97.43       97.67       97.94       98.26       98.65       99.18    
        100.0    
  38    100.0       99.20       98.67       98.29       97.98       97.72       97.49       97.27       97.07       96.88    
        96.69       96.51       96.33       96.16       95.99       95.82       95.66       95.51       95.36       95.22    
        95.09       94.97       94.86       94.77       94.70       94.64       94.59       94.57       94.55       94.55    
        94.57       94.59       94.62       94.66       94.70       94.75       94.80       94.85       94.90       94.95    
        95.00       95.04       95.08       95.12       95.15       95.18       95.20       95.22       95.23       95.24    
        95.24       95.24       95.23       95.22       95.20       95.18       95.15       95.12       95.08       95.04    
        95.00       94.95       94.90       94.85       94.80       94.75       94.70       94.66       94.62       94.59    
        94.57       94.55       94.55       94.57       94.59       94.64       94.70       94.77       94.86       94.97    
        95.09       95.22       95.36       95.51       95.66       95.82       95.99       96.16       96.33       96.51    
        96.69       96.88       97.07       97.27       97.49       97.72       97.98       98.29       98.67       99.20    
        100.0    
  39    100.0       99.21       98.70       98.32       98.02       97.77       97.54       97.33       97.14       96.95    
        96.77       96.60       96.43       96.27       96.10       95.95       95.80       95.65       95.51       95.38    
        95.26       95.14       95.04       94.96       94.88       94.83       94.78       94.75       94.73       94.73    
        94.74       94.75       94.78       94.81       94.84       94.88       94.92       94.97       95.01       95.05    
        95.09       95.13       95.17       95.20       95.23       95.25       95.27       95.29       95.30       95.31    
        95.31       95.31       95.30       95.29       95.27       95.25       95.23       95.20       95.17       95.13    
        95.09       95.05       95.01       94.97       94.92       94.88       94.84       94.81       94.78       94.75    
        94.74       94.73       94.73       94.75       94.78       94.83       94.88       94.96       95.04       95.14    
        95.26       95.38       95.51       95.65       95.80       95.95       96.10       96.27       96.43       96.60    
        96.77       96.95       97.14       97.33       97.54       97.77       98.02       98.32       98.70       99.21    
        100.0    
  40    100.0       99.23       98.73       98.36       98.07       97.82       97.60       97.40       97.21       97.03    
        96.86       96.69       96.53       96.37       96.22       96.07       95.93       95.79       95.66       95.53    
        95.42       95.31       95.22       95.14       95.07       95.01       94.96       94.93       94.91       94.90    
        94.90       94.91       94.93       94.95       94.98       95.01       95.05       95.08       95.12       95.16    
        95.19       95.23       95.26       95.29       95.31       95.33       95.35       95.36       95.37       95.38    
        95.38       95.38       95.37       95.36       95.35       95.33       95.31       95.29       95.26       95.23    
        95.19       95.16       95.12       95.08       95.05       95.01       94.98       94.95       94.93       94.91    
        94.90       94.90       94.91       94.93       94.96       95.01       95.07       95.14       95.22       95.31    
        95.42       95.53       95.66       95.79       95.93       96.07       96.22       96.37       96.53       96.69    
        96.86       97.03       97.21       97.40       97.60       97.82       98.07       98.36       98.73       99.23    
        100.0    
  41    100.0       99.25       98.76       98.40       98.11       97.87       97.66       97.46       97.28       97.11    
        96.94       96.78       96.63       96.48       96.33       96.19       96.05       95.92       95.80       95.68    
        95.58       95.48       95.39       95.31       95.24       95.18       95.14       95.10       95.08       95.07    
        95.06       95.07       95.08       95.10       95.12       95.14       95.17       95.20       95.23       95.26    
        95.29       95.32       95.35       95.37       95.40       95.41       95.43       95.44       95.45       95.46    
        95.46       95.46       95.45       95.44       95.43       95.41       95.40       95.37       95.35       95.32    
        95.29       95.26       95.23       95.20       95.17       95.14       95.12       95.10       95.08       95.07    
        95.06       95.07       95.08       95.10       95.14       95.18       95.24       95.31       95.39       95.48    
        95.58       95.68       95.80       95.92       96.05       96.19       96.33       96.48       96.63       96.78    
        96.94       97.11       97.28       97.46       97.66       97.87       98.11       98.40       98.76       99.25    
        100.0    
  42    100.0       99.27       98.79       98.44       98.16       97.92       97.71       97.53       97.35       97.18    
        97.03       96.87       96.73       96.58       96.44       96.31       96.18       96.06       95.94       95.83    
        95.73       95.63       95.55       95.47       95.41       95.35       95.31       95.27       95.25       95.23    
        95.22       95.22       95.23       95.24       95.25       95.27       95.30       95.32       95.35       95.37    
        95.40       95.42       95.44       95.46       95.48       95.50       95.51       95.52       95.53       95.54    
        95.54       95.54       95.53       95.52       95.51       95.50       95.48       95.46       95.44       95.42    
        95.40       95.37       95.35       95.32       95.30       95.27       95.25       95.24       95.23       95.22    
        95.22       95.23       95.25       95.27       95.31       95.35       95.41       95.47       95.55       95.63    
        95.73       95.83       95.94       96.06       96.18       96.31       96.44       96.58       96.73       96.87    
        97.03       97.18       97.35       97.53       97.71       97.92       98.16       98.44       98.79       99.27    
        100.0    
  43    100.0       99.28       98.82       98.47       98.20       97.97       97.77       97.59       97.42       97.26    
        97.11       96.96       96.82       96.69       96.55       96.43       96.30       96.19       96.08       95.97    
        95.88       95.79       95.71       95.63       95.57       95.51       95.47       95.43       95.41       95.39    
        95.37       95.37       95.37       95.38       95.39       95.40       95.42       95.44       95.46       95.48    
        95.50       95.52       95.54       95.56       95.57       95.59       95.60       95.61       95.61       95.62    
        95.62       95.62       95.61       95.61       95.60       95.59       95.57       95.56       95.54       95.52    
        95.50       95.48       95.46       95.44       95.42       95.40       95.39       95.38       95.37       95.37    
        95.37       95.39       95.41       95.43       95.47       95.51       95.57       95.63       95.71       95.79    
        95.88       95.97       96.08       96.19       96.30       96.43       96.55       96.69       96.82       96.96    
        97.11       97.26       97.42       97.59       97.77       97.97       98.20       98.47       98.82       99.28    
        100.0    
  44    100.0       99.30       98.85       98.51       98.25       98.03       97.83       97.66       97.49       97.34    
        97.19       97.05       96.92       96.79       96.66       96.54       96.42       96.31       96.21       96.11    
        96.02       95.93       95.85       95.79       95.72       95.67       95.62       95.59       95.56       95.54    
        95.52       95.51       95.51       95.51       95.52       95.53       95.54       95.55       95.57       95.59    
        95.60       95.62       95.64       95.65       95.66       95.68       95.69       95.69       95.70       95.70    
        95.70       95.70       95.70       95.69       95.69       95.68       95.66       95.65       95.64       95.62    
        95.60       95.59       95.57       95.55       95.54       95.53       95.52       95.51       95.51       95.51    
        95.52       95.54       95.56       95.59       95.62       95.67       95.72       95.79       95.85       95.93    
        96.02       96.11       96.21       96.31       96.42       96.54       96.66       96.79       96.92       97.05    
        97.19       97.34       97.49       97.66       97.83       98.03       98.25       98.51       98.85       99.30    
        100.0    
  45    100.0       99.32       98.88       98.55       98.30       98.08       97.89       97.72       97.56       97.41    
        97.27       97.14       97.01       96.89       96.77       96.65       96.54       96.44       96.34       96.24    
        96.15       96.07       96.00       95.93       95.87       95.82       95.77       95.74       95.71       95.68    
        95.66       95.65       95.65       95.64       95.65       95.65       95.66       95.67       95.68       95.69    
        95.71       95.72       95.73       95.75       95.76       95.77       95.77       95.78       95.79       95.79    
        95.79       95.79       95.79       95.78       95.77       95.77       95.76       95.75       95.73       95.72    
        95.71       95.69       95.68       95.67       95.66       95.65       95.65       95.64       95.65       95.65    
        95.66       95.68       95.71       95.74       95.77       95.82       95.87       95.93       96.00       96.07    
        96.15       96.24       96.34       96.44       96.54       96.65       96.77       96.89       97.01       97.14    
        97.27       97.41       97.56       97.72       97.89       98.08       98.30       98.55       98.88       99.32    
        100.0    
  46    100.0       99.34       98.91       98.59       98.34       98.13       97.95       97.78       97.63       97.49    
        97.35       97.23       97.10       96.98       96.87       96.76       96.65       96.55       96.46       96.37    
        96.29       96.21       96.14       96.07       96.01       95.96       95.92       95.88       95.85       95.82    
        95.80       95.79       95.78       95.77       95.77       95.77       95.78       95.78       95.79       95.80    
        95.81       95.82       95.83       95.84       95.85       95.86       95.86       95.87       95.87       95.88    
        95.88       95.88       95.87       95.87       95.86       95.86       95.85       95.84       95.83       95.82    
        95.81       95.80       95.79       95.78       95.78       95.77       95.77       95.77       95.78       95.79    
        95.80       95.82       95.85       95.88       95.92       95.96       96.01       96.07       96.14       96.21    
        96.29       96.37       96.46       96.55       96.65       96.76       96.87       96.98       97.10       97.23    
        97.35       97.49       97.63       97.78       97.95       98.13       98.34       98.59       98.91       99.34    
        100.0    
  47    100.0       99.36       98.94       98.63       98.39       98.19       98.01       97.85       97.70       97.56    
        97.43       97.31       97.19       97.08       96.97       96.86       96.76       96.67       96.58       96.49    
        96.41       96.34       96.27       96.21       96.15       96.10       96.05       96.02       95.98       95.96    
        95.93       95.92       95.91       95.90       95.89       95.89       95.89       95.90       95.90       95.91    
        95.91       95.92       95.93       95.94       95.94       95.95       95.95       95.96       95.96       95.96    
        95.96       95.96       95.96       95.96       95.95       95.95       95.94       95.94       95.93       95.92    
        95.91       95.91       95.90       95.90       95.89       95.89       95.89       95.90       95.91       95.92    
        95.93       95.96       95.98       96.02       96.05       96.10       96.15       96.21       96.27       96.34    
        96.41       96.49       96.58       96.67       96.76       96.86       96.97       97.08       97.19       97.31    
        97.43       97.56       97.70       97.85       98.01       98.19       98.39       98.63       98.94       99.36    
        100.0    
  48    100.0       99.37       98.97       98.67       98.43       98.24       98.07       97.91       97.77       97.64    
        97.51       97.39       97.28       97.17       97.07       96.97       96.87       96.78       96.69       96.61    
        96.53       96.46       96.40       96.33       96.28       96.23       96.19       96.15       96.11       96.09    
        96.06       96.04       96.03       96.02       96.01       96.01       96.01       96.01       96.01       96.01    
        96.02       96.02       96.03       96.03       96.04       96.04       96.05       96.05       96.05       96.05    
        96.05       96.05       96.05       96.05       96.05       96.04       96.04       96.03       96.03       96.02    
        96.02       96.01       96.01       96.01       96.01       96.01       96.01       96.02       96.03       96.04    
        96.06       96.09       96.11       96.15       96.19       96.23       96.28       96.33       96.40       96.46    
        96.53       96.61       96.69       96.78       96.87       96.97       97.07       97.17       97.28       97.39    
        97.51       97.64       97.77       97.91       98.07       98.24       98.43       98.67       98.97       99.37    
        100.0    
  49    100.0       99.39       98.99       98.71       98.48       98.29       98.12       97.97       97.84       97.71    
        97.59       97.47       97.37       97.26       97.16       97.06       96.97       96.89       96.80       96.72    
        96.65       96.58       96.52       96.46       96.40       96.36       96.31       96.27       96.24       96.21    
        96.19       96.17       96.15       96.14       96.13       96.12       96.12       96.12       96.12       96.12    
        96.12       96.12       96.12       96.13       96.13       96.13       96.14       96.14       96.14       96.14    
        96.14       96.14       96.14       96.14       96.14       96.13       96.13       96.13       96.12       96.12    
        96.12       96.12       96.12       96.12       96.12       96.12       96.13       96.14       96.15       96.17    
        96.19       96.21       96.24       96.27       96.31       96.36       96.40       96.46       96.52       96.58    
        96.65       96.72       96.80       96.89       96.97       97.06       97.16       97.26       97.37       97.47    
        97.59       97.71       97.84       97.97       98.12       98.29       98.48       98.71       98.99       99.39    
        100.0    
  50    100.0       99.41       99.02       98.74       98.52       98.34       98.18       98.03       97.90       97.78    
        97.66       97.55       97.45       97.35       97.25       97.16       97.07       96.99       96.91       96.83    
        96.76       96.70       96.63       96.58       96.52       96.48       96.43       96.39       96.36       96.33    
        96.31       96.28       96.27       96.25       96.24       96.23       96.23       96.22       96.22       96.22    
        96.22       96.22       96.22       96.22       96.22       96.23       96.23       96.23       96.23       96.23    
        96.23       96.23       96.23       96.23       96.23       96.23       96.22       96.22       96.22       96.22    
        96.22       96.22       96.22       96.22       96.23       96.23       96.24       96.25       96.27       96.28    
        96.31       96.33       96.36       96.39       96.43       96.48       96.52       96.58       96.63       96.70    
        96.76       96.83       96.91       96.99       97.07       97.16       97.25       97.35       97.45       97.55    
        97.66       97.78       97.90       98.03       98.18       98.34       98.52       98.74       99.02       99.41    
        100.0    
  51    100.0       99.43       99.05       98.78       98.57       98.39       98.23       98.09       97.97       97.85    
        97.74       97.63       97.53       97.43       97.34       97.25       97.17       97.09       97.01       96.94    
        96.87       96.81       96.75       96.69       96.64       96.59       96.55       96.51       96.48       96.45    
        96.42       96.40       96.38       96.36       96.35       96.34       96.33       96.33       96.32       96.32    
        96.32       96.32       96.32       96.32       96.32       96.32       96.32       96.32       96.32       96.32    
        96.32       96.32       96.32       96.32       96.32       96.32       96.32       96.32       96.32       96.32    
        96.32       96.32       96.32       96.33       96.33       96.34       96.35       96.36       96.38       96.40    
        96.42       96.45       96.48       96.51       96.55       96.59       96.64       96.69       96.75       96.81    
        96.87       96.94       97.01       97.09       97.17       97.25       97.34       97.43       97.53       97.63    
        97.74       97.85       97.97       98.09       98.23       98.39       98.57       98.78       99.05       99.43    
        100.0    
  52    100.0       99.44       99.08       98.82       98.61       98.44       98.29       98.15       98.03       97.91    
        97.81       97.70       97.61       97.51       97.43       97.34       97.26       97.18       97.11       97.04    
        96.97       96.91       96.85       96.80       96.75       96.70       96.66       96.62       96.59       96.56    
        96.53       96.51       96.49       96.47       96.46       96.45       96.44       96.43       96.42       96.42    
        96.41       96.41       96.41       96.41       96.41       96.41       96.41       96.41       96.41       96.41    
        96.41       96.41       96.41       96.41       96.41       96.41       96.41       96.41       96.41       96.41    
        96.41       96.42       96.42       96.43       96.44       96.45       96.46       96.47       96.49       96.51    
        96.53       96.56       96.59       96.62       96.66       96.70       96.75       96.80       96.85       96.91    
        96.97       97.04       97.11       97.18       97.26       97.34       97.43       97.51       97.61       97.70    
        97.81       97.91       98.03       98.15       98.29       98.44       98.61       98.82       99.08       99.44    
        100.0    
  53    100.0       99.46       99.11       98.85       98.65       98.48       98.34       98.21       98.09       97.98    
        97.87       97.78       97.68       97.59       97.51       97.43       97.35       97.28       97.21       97.14    
        97.07       97.01       96.96       96.91       96.86       96.81       96.77       96.73       96.70       96.67    
        96.64       96.62       96.60       96.58       96.56       96.55       96.54       96.53       96.52       96.52    
        96.51       96.51       96.50       96.50       96.50       96.50       96.50       96.50       96.50       96.50    
        96.50       96.50       96.50       96.50       96.50       96.50       96.50       96.50       96.50       96.51    
        96.51       96.52       96.52       96.53       96.54       96.55       96.56       96.58       96.60       96.62    
        96.64       96.67       96.70       96.73       96.77       96.81       96.86       96.91       96.96       97.01    
        97.07       97.14       97.21       97.28       97.35       97.43       97.51       97.59       97.68       97.78    
        97.87       97.98       98.09       98.21       98.34       98.48       98.65       98.85       99.11       99.46    
        100.0    
  54    100.0       99.48       99.14       98.89       98.69       98.53       98.39       98.26       98.15       98.04    
        97.94       97.85       97.76       97.67       97.59       97.51       97.44       97.37       97.30       97.23    
        97.17       97.11       97.06       97.01       96.96       96.92       96.87       96.84       96.80       96.77    
        96.75       96.72       96.70       96.68       96.66       96.65       96.64       96.63       96.62       96.61    
[...]
        98.87       98.87       98.87       98.88       98.88       98.88       98.88       98.89       98.89       98.90    
        98.90       98.91       98.92       98.92       98.93       98.94       98.95       98.96       98.97       98.98    
        99.00       99.01       99.02       99.04       99.05       99.07       99.08       99.10       99.11       99.13    
        99.15       99.17       99.19       99.21       99.23       99.25       99.27       99.29       99.31       99.33    
        99.35       99.37       99.38       99.40       99.42       99.44       99.45       99.46       99.47       99.48    
        99.48    
  89    99.50       99.50       99.49       99.48       99.47       99.46       99.44       99.43       99.41       99.39    
        99.37       99.35       99.33       99.31       99.30       99.28       99.26       99.24       99.22       99.20    
        99.18       99.17       99.15       99.13       99.12       99.10       99.09       99.08       99.06       99.05    
        99.04       99.03       99.01       99.00       98.99       98.99       98.98       98.97       98.96       98.95    
        98.95       98.94       98.94       98.93       98.93       98.93       98.92       98.92       98.92       98.92    
        98.92       98.92       98.92       98.92       98.92       98.93       98.93       98.93       98.94       98.94    
        98.95       98.95       98.96       98.97       98.98       98.99       98.99       99.00       99.01       99.03    
        99.04       99.05       99.06       99.08       99.09       99.10       99.12       99.13       99.15       99.17    
        99.18       99.20       99.22       99.24       99.26       99.28       99.30       99.31       99.33       99.35    
        99.37       99.39       99.41       99.43       99.44       99.46       99.47       99.48       99.49       99.50    
        99.50    
  90    99.52       99.51       99.51       99.50       99.49       99.48       99.46       99.45       99.43       99.41    
        99.40       99.38       99.36       99.34       99.32       99.31       99.29       99.27       99.25       99.23    
        99.22       99.20       99.19       99.17       99.16       99.14       99.13       99.11       99.10       99.09    
        99.08       99.07       99.05       99.04       99.04       99.03       99.02       99.01       99.00       99.00    
        98.99       98.99       98.98       98.98       98.97       98.97       98.97       98.96       98.96       98.96    
        98.96       98.96       98.96       98.96       98.97       98.97       98.97       98.98       98.98       98.99    
        98.99       99.00       99.00       99.01       99.02       99.03       99.04       99.04       99.05       99.07    
        99.08       99.09       99.10       99.11       99.13       99.14       99.16       99.17       99.19       99.20    
        99.22       99.23       99.25       99.27       99.29       99.31       99.32       99.34       99.36       99.38    
        99.40       99.41       99.43       99.45       99.46       99.48       99.49       99.50       99.51       99.51    
        99.52    
  91    99.54       99.53       99.53       99.52       99.51       99.50       99.48       99.47       99.45       99.44    
        99.42       99.40       99.39       99.37       99.35       99.33       99.32       99.30       99.28       99.27    
        99.25       99.23       99.22       99.20       99.19       99.18       99.16       99.15       99.14       99.13    
        99.11       99.10       99.09       99.08       99.07       99.07       99.06       99.05       99.04       99.04    
        99.03       99.03       99.02       99.02       99.01       99.01       99.01       99.01       99.01       99.00    
        99.00       99.00       99.01       99.01       99.01       99.01       99.01       99.02       99.02       99.03    
        99.03       99.04       99.04       99.05       99.06       99.07       99.07       99.08       99.09       99.10    
        99.11       99.13       99.14       99.15       99.16       99.18       99.19       99.20       99.22       99.23    
        99.25       99.27       99.28       99.30       99.32       99.33       99.35       99.37       99.39       99.40    
        99.42       99.44       99.45       99.47       99.48       99.50       99.51       99.52       99.53       99.53    
        99.54    
  92    99.55       99.55       99.55       99.54       99.53       99.52       99.50       99.49       99.48       99.46    
        99.44       99.43       99.41       99.39       99.38       99.36       99.34       99.33       99.31       99.30    
        99.28       99.27       99.25       99.24       99.22       99.21       99.20       99.18       99.17       99.16    
        99.15       99.14       99.13       99.12       99.11       99.10       99.10       99.09       99.08       99.08    
        99.07       99.07       99.06       99.06       99.05       99.05       99.05       99.05       99.05       99.04    
        99.04       99.04       99.05       99.05       99.05       99.05       99.05       99.06       99.06       99.07    
        99.07       99.08       99.08       99.09       99.10       99.10       99.11       99.12       99.13       99.14    
        99.15       99.16       99.17       99.18       99.20       99.21       99.22       99.24       99.25       99.27    
        99.28       99.30       99.31       99.33       99.34       99.36       99.38       99.39       99.41       99.43    
        99.44       99.46       99.48       99.49       99.50       99.52       99.53       99.54       99.55       99.55    
        99.55    
  93    99.57       99.57       99.56       99.55       99.55       99.53       99.52       99.51       99.50       99.48    
        99.47       99.45       99.43       99.42       99.40       99.39       99.37       99.35       99.34       99.32    
        99.31       99.29       99.28       99.27       99.25       99.24       99.23       99.22       99.21       99.19    
        99.18       99.17       99.17       99.16       99.15       99.14       99.13       99.13       99.12       99.11    
        99.11       99.10       99.10       99.10       99.09       99.09       99.09       99.09       99.08       99.08    
        99.08       99.08       99.08       99.09       99.09       99.09       99.09       99.10       99.10       99.10    
        99.11       99.11       99.12       99.13       99.13       99.14       99.15       99.16       99.17       99.17    
        99.18       99.19       99.21       99.22       99.23       99.24       99.25       99.27       99.28       99.29    
        99.31       99.32       99.34       99.35       99.37       99.39       99.40       99.42       99.43       99.45    
        99.47       99.48       99.50       99.51       99.52       99.53       99.55       99.55       99.56       99.57    
        99.57    
  94    99.58       99.58       99.58       99.57       99.56       99.55       99.54       99.53       99.51       99.50    
        99.48       99.47       99.45       99.44       99.42       99.41       99.39       99.38       99.36       99.35    
        99.34       99.32       99.31       99.30       99.28       99.27       99.26       99.25       99.24       99.23    
        99.22       99.21       99.20       99.19       99.18       99.17       99.17       99.16       99.15       99.15    
        99.14       99.14       99.13       99.13       99.13       99.12       99.12       99.12       99.12       99.12    
        99.12       99.12       99.12       99.12       99.12       99.12       99.13       99.13       99.13       99.14    
        99.14       99.15       99.15       99.16       99.17       99.17       99.18       99.19       99.20       99.21    
        99.22       99.23       99.24       99.25       99.26       99.27       99.28       99.30       99.31       99.32    
        99.34       99.35       99.36       99.38       99.39       99.41       99.42       99.44       99.45       99.47    
        99.48       99.50       99.51       99.53       99.54       99.55       99.56       99.57       99.58       99.58    
        99.58    
  95    99.60       99.59       99.59       99.58       99.58       99.57       99.56       99.54       99.53       99.52    
        99.50       99.49       99.47       99.46       99.44       99.43       99.42       99.40       99.39       99.37    
        99.36       99.35       99.33       99.32       99.31       99.30       99.29       99.28       99.26       99.25    
        99.25       99.24       99.23       99.22       99.21       99.20       99.20       99.19       99.19       99.18    
        99.17       99.17       99.17       99.16       99.16       99.16       99.15       99.15       99.15       99.15    
        99.15       99.15       99.15       99.15       99.15       99.16       99.16       99.16       99.17       99.17    
        99.17       99.18       99.18       99.19       99.20       99.20       99.21       99.22       99.23       99.24    
        99.25       99.25       99.26       99.28       99.29       99.30       99.31       99.32       99.33       99.35    
        99.36       99.37       99.39       99.40       99.42       99.43       99.44       99.46       99.47       99.49    
        99.50       99.52       99.53       99.54       99.56       99.57       99.58       99.58       99.59       99.59    
        99.60    
  96    99.61       99.61       99.60       99.60       99.59       99.58       99.57       99.56       99.55       99.53    
        99.52       99.51       99.49       99.48       99.46       99.45       99.44       99.42       99.41       99.39    
        99.38       99.37       99.36       99.34       99.33       99.32       99.31       99.30       99.29       99.28    
        99.27       99.26       99.25       99.25       99.24       99.23       99.23       99.22       99.21       99.21    
        99.20       99.20       99.19       99.19       99.19       99.19       99.18       99.18       99.18       99.18    
        99.18       99.18       99.18       99.18       99.18       99.19       99.19       99.19       99.19       99.20    
        99.20       99.21       99.21       99.22       99.22       99.23       99.24       99.25       99.25       99.26    
        99.27       99.28       99.29       99.30       99.31       99.32       99.33       99.34       99.36       99.37    
        99.38       99.39       99.41       99.42       99.44       99.45       99.46       99.48       99.49       99.51    
        99.52       99.53       99.55       99.56       99.57       99.58       99.59       99.60       99.60       99.61    
        99.61    
  97    99.62       99.62       99.61       99.61       99.60       99.59       99.58       99.57       99.56       99.55    
        99.53       99.52       99.51       99.49       99.48       99.47       99.45       99.44       99.43       99.41    
        99.40       99.39       99.38       99.37       99.35       99.34       99.33       99.32       99.31       99.30    
        99.29       99.29       99.28       99.27       99.26       99.26       99.25       99.24       99.24       99.23    
        99.23       99.22       99.22       99.22       99.21       99.21       99.21       99.21       99.21       99.21    
        99.21       99.21       99.21       99.21       99.21       99.21       99.21       99.22       99.22       99.22    
        99.23       99.23       99.24       99.24       99.25       99.26       99.26       99.27       99.28       99.29    
        99.29       99.30       99.31       99.32       99.33       99.34       99.35       99.37       99.38       99.39    
        99.40       99.41       99.43       99.44       99.45       99.47       99.48       99.49       99.51       99.52    
        99.53       99.55       99.56       99.57       99.58       99.59       99.60       99.61       99.61       99.62    
        99.62    
  98    99.63       99.63       99.62       99.62       99.61       99.60       99.59       99.58       99.57       99.56    
        99.55       99.53       99.52       99.51       99.49       99.48       99.47       99.45       99.44       99.43    
        99.42       99.40       99.39       99.38       99.37       99.36       99.35       99.34       99.33       99.32    
        99.31       99.30       99.30       99.29       99.28       99.28       99.27       99.26       99.26       99.25    
        99.25       99.24       99.24       99.24       99.23       99.23       99.23       99.23       99.23       99.23    
        99.23       99.23       99.23       99.23       99.23       99.23       99.23       99.24       99.24       99.24    
        99.25       99.25       99.26       99.26       99.27       99.28       99.28       99.29       99.30       99.30    
        99.31       99.32       99.33       99.34       99.35       99.36       99.37       99.38       99.39       99.40    
        99.42       99.43       99.44       99.45       99.47       99.48       99.49       99.51       99.52       99.53    
        99.55       99.56       99.57       99.58       99.59       99.60       99.61       99.62       99.62       99.63    
        99.63    
  99    99.63       99.63       99.63       99.62       99.62       99.61       99.60       99.59       99.58       99.57    
        99.55       99.54       99.53       99.52       99.50       99.49       99.48       99.47       99.45       99.44    
        99.43       99.42       99.41       99.40       99.38       99.37       99.36       99.35       99.34       99.34    
        99.33       99.32       99.31       99.30       99.30       99.29       99.28       99.28       99.27       99.27    
        99.26       99.26       99.26       99.25       99.25       99.25       99.25       99.24       99.24       99.24    
        99.24       99.24       99.24       99.24       99.25       99.25       99.25       99.25       99.26       99.26    
        99.26       99.27       99.27       99.28       99.28       99.29       99.30       99.30       99.31       99.32    
        99.33       99.34       99.34       99.35       99.36       99.37       99.38       99.40       99.41       99.42    
        99.43       99.44       99.45       99.47       99.48       99.49       99.50       99.52       99.53       99.54    
        99.55       99.57       99.58       99.59       99.60       99.61       99.62       99.62       99.63       99.63    
        99.63    
 100    99.64       99.64       99.63       99.63       99.62       99.61       99.60       99.59       99.58       99.57    
        99.56       99.55       99.54       99.52       99.51       99.50       99.49       99.47       99.46       99.45    
        99.44       99.43       99.41       99.40       99.39       99.38       99.37       99.36       99.35       99.35    
        99.34       99.33       99.32       99.31       99.31       99.30       99.30       99.29       99.28       99.28    
        99.28       99.27       99.27       99.26       99.26       99.26       99.26       99.26       99.26       99.25    
        99.25       99.25       99.26       99.26       99.26       99.26       99.26       99.26       99.27       99.27    
        99.28       99.28       99.28       99.29       99.30       99.30       99.31       99.31       99.32       99.33    
        99.34       99.35       99.35       99.36       99.37       99.38       99.39       99.40       99.41       99.43    
        99.44       99.45       99.46       99.47       99.49       99.50       99.51       99.52       99.54       99.55    
        99.56       99.57       99.58       99.59       99.60       99.61       99.62       99.63       99.63       99.64    
        99.64    
 101    99.64       99.64       99.64       99.63       99.62       99.62       99.61       99.60       99.59       99.58    
        99.56       99.55       99.54       99.53       99.51       99.50       99.49       99.48       99.47       99.45    
        99.44       99.43       99.42       99.41       99.40       99.39       99.38       99.37       99.36       99.35    
        99.34       99.33       99.33       99.32       99.31       99.31       99.30       99.29       99.29       99.28    
        99.28       99.28       99.27       99.27       99.27       99.27       99.26       99.26       99.26       99.26    
        99.26       99.26       99.26       99.26       99.26       99.27       99.27       99.27       99.27       99.28    
        99.28       99.28       99.29       99.29       99.30       99.31       99.31       99.32       99.33       99.33    
        99.34       99.35       99.36       99.37       99.38       99.39       99.40       99.41       99.42       99.43    
        99.44       99.45       99.47       99.48       99.49       99.50       99.51       99.53       99.54       99.55    
        99.56       99.58       99.59       99.60       99.61       99.62       99.62       99.63       99.64       99.64    
        99.64    

 HEAD WILL BE SAVED ON UNIT 1016 AT END OF TIME STEP    1, STRESS PERIOD    1


  VOLUME BUDGET FOR ENTIRE MODEL AT END OF TIME STEP    1, STRESS PERIOD   1
  ---------------------------------------------------------------------------------------------------

     CUMULATIVE VOLUME      L**3       RATES FOR THIS TIME STEP      L**3/T          PACKAGE NAME    
     ------------------                 ------------------------                     ----------------

           IN:                                      IN:
           ---                                      ---
              STO-SS =         232.5949                STO-SS =         232.5949     STORAGE                          
              STO-SY =           0.0000                STO-SY =           0.0000     STORAGE                          
                 WEL =           0.0000                   WEL =           0.0000     WEL_0                            
                RCHA =           0.0000                  RCHA =           0.0000     RCH                              
                 CHD =        1764.8741                   CHD =        1764.8741     CHD_0                            

            TOTAL IN =        1997.4690              TOTAL IN =        1997.4690

          OUT:                                     OUT:
          ----                                     ----
              STO-SS =           0.0000                STO-SS =           0.0000     STORAGE                          
              STO-SY =           0.0000                STO-SY =           0.0000     STORAGE                          
                 WEL =        2000.0000                   WEL =        2000.0000     WEL_0                            
                RCHA =           0.0000                  RCHA =           0.0000     RCH                              
                 CHD =           0.0000                   CHD =           0.0000     CHD_0                            

           TOTAL OUT =        2000.0000             TOTAL OUT =        2000.0000

            IN - OUT =          -2.5310              IN - OUT =          -2.5310

 PERCENT DISCREPANCY =          -0.13     PERCENT DISCREPANCY =          -0.13




         TIME SUMMARY AT END OF TIME STEP    1 IN STRESS PERIOD    1
                    SECONDS     MINUTES      HOURS       DAYS        YEARS
                    -----------------------------------------------------------
   TIME STEP LENGTH  86400.      1440.0      24.000      1.0000     2.73785E-03
 STRESS PERIOD TIME  86400.      1440.0      24.000      1.0000     2.73785E-03
         TOTAL TIME  86400.      1440.0      24.000      1.0000     2.73785E-03


end timestep

