                                   MODFLOW 6
                U.S. GEOLOGICAL SURVEY MODULAR HYDROLOGIC MODEL
                          GROUNDWATER FLOW MODEL (GWF)
                        VERSION 6.4.1 Release 12/09/2022

   MODFLOW 6 compiled Dec 09 2022 18:18:37 with Intel(R) Fortran Intel(R) 64
   Compiler Classic for applications running on Intel(R) 64, Version 2021.7.0
                             Build 20220726_000000

This software has been approved for release by the U.S. Geological 
Survey (USGS). Although the software has been subjected to rigorous 
review, the USGS reserves the right to update the software as needed 
pursuant to further analysis and review. No warranty, expressed or 
implied, is made by the USGS or the U.S. Government as to the 
functionality of the software and related material nor shall the 
fact of release constitute any such warranty. Furthermore, the 
software is released on condition that neither the USGS nor the U.S. 
Government shall be held liable for any damages resulting from its 
authorized or unauthorized use. Also refer to the USGS Water 
Resources Software User Rights Notice for complete use, copyright, 
and distribution information.


As a work of the United States Government, this USGS product is 
in the public domain within the United States. You can copy, 
modify, distribute, and perform the work, even for commercial 
purposes, all without asking permission. Additionally, USGS 
waives copyright and related rights in the work worldwide 
through CC0 1.0 Universal Public Domain Dedication 
(https://creativecommons.org/publicdomain/zero/1.0/).

The following GNU Lesser General Public License (LGPL) libraries
are used in this USGS product:

    SPARSKIT version 2.0
      ilut, luson, and qsplit 
      (https://www-users.cse.umn.edu/~saad/software/SPARSKIT/)

    RCM - Reverse Cuthill McKee Ordering
      (https://people.math.sc.edu/Burkardt/f_src/rcm/rcm.html)

    BLAS - Basic Linear Algebra Subprograms Level 1
      (https://people.math.sc.edu/Burkardt/f_src/blas1_d/blas1_d.html)

    SPARSEKIT - Sparse Matrix Utility Package
      amux, dperm, dvperm, rperm, and cperm
      (https://people.sc.fsu.edu/~jburkardt/f77_src/sparsekit/sparsekit.html)

The following BSD-3 License libraries are used in this USGS product:

    Modern Fortran DAG Library
      Copyright (c) 2018, Jacob Williams
      All rights reserved.
      (https://github.com/jacobwilliams/daglib)

MODFLOW 6 compiler options: /Isrc\libmf6core.a.p /Isrc /I..\src
/Isrc\libmf6_external.a.p /MTd /nologo /warn:general /warn:truncated_source
/stand:f08 /Zi /traceback /O2 /fpe:0 /heap-arrays:0 /traceback /fpp
/Qdiag-disable:7416 /Qdiag-disable:7025 /Qdiag-disable:5268
/Fdsrc\libmf6core.a.p\Utilities_compilerversion.F90.pdb
/module:src\libmf6core.a.p
/Fosrc/libmf6core.a.p/Utilities_compilerversion.F90.obj /c

System command used to initiate simulation:
"C:\Users\ksil8584\OneDrive - The University of Sydney (Staff)\Documents\Modflow\mf6.4.1\bin\mf6.exe"

MODFLOW was compiled using uniform precision.

Real Variables
  KIND: 8
  TINY (smallest non-zero value):    2.225074-308
  HUGE (largest value):    1.797693+308
  PRECISION: 15
  SIZE IN BITS: 64

Integer Variables
  KIND: 4
  HUGE (largest value): 2147483647
  SIZE IN BITS: 32

Long Integer Variables
  KIND: 8
  HUGE (largest value): 9223372036854775807
  SIZE IN BITS: 64

Logical Variables
  KIND: 4
  SIZE IN BITS: 32
 

 OPENED FloPy_ModelS_3.dis
 FILE TYPE:DIS6                   UNIT 1005   STATUS:OLD                 
 FORMAT:FORMATTED              ACCESS:SEQUENTIAL          
 ACTION:READ                


 OPENED FloPy_ModelS_3.ic
 FILE TYPE:IC6                    UNIT 1006   STATUS:OLD                 
 FORMAT:FORMATTED              ACCESS:SEQUENTIAL          
 ACTION:READ                


 OPENED FloPy_ModelS_3.npf
 FILE TYPE:NPF6                   UNIT 1007   STATUS:OLD                 
 FORMAT:FORMATTED              ACCESS:SEQUENTIAL          
 ACTION:READ                


 OPENED FloPy_ModelS_3.sto
 FILE TYPE:STO6                   UNIT 1008   STATUS:OLD                 
 FORMAT:FORMATTED              ACCESS:SEQUENTIAL          
 ACTION:READ                


 OPENED FloPy_ModelS_3.chd
 FILE TYPE:CHD6                   UNIT 1009   STATUS:OLD                 
 FORMAT:FORMATTED              ACCESS:SEQUENTIAL          
 ACTION:READ                


 OPENED FloPy_ModelS_3.oc
 FILE TYPE:OC6                    UNIT 1010   STATUS:OLD                 
 FORMAT:FORMATTED              ACCESS:SEQUENTIAL          
 ACTION:READ                


 OPENED FloPy_ModelS_3.wel
 FILE TYPE:WEL6                   UNIT 1011   STATUS:OLD                 
 FORMAT:FORMATTED              ACCESS:SEQUENTIAL          
 ACTION:READ                


 OPENED FloPy_ModelS_3.rcha
 FILE TYPE:RCH6                   UNIT 1012   STATUS:OLD                 
 FORMAT:FORMATTED              ACCESS:SEQUENTIAL          
 ACTION:READ                


 OPENED FloPy_ModelS_3.evta
 FILE TYPE:EVT6                   UNIT 1013   STATUS:OLD                 
 FORMAT:FORMATTED              ACCESS:SEQUENTIAL          
 ACTION:READ                

 NAMEFILE OPTIONS:
    FLOWS WILL BE SAVED TO BUDGET FILE SPECIFIED IN OUTPUT CONTROL
    NEWTON-RAPHSON method enabled for the model.
    NEWTON-RAPHSON UNDER-RELAXATION based on the bottom elevation of the model will be applied to the model.

 DIS -- STRUCTURED GRID DISCRETIZATION PACKAGE, VERSION 2 : 3/27/2014 - INPUT READ FROM UNIT 1005

 Loading input for FLOPY_MODELS_3/DIS
 # File generated by Flopy version 3.3.6 on 07/08/2023 at 09:49:35.
   NLAY = 10
   NROW = 101
   NCOL = 101
   DELR = 4.000000000000000
   DELC = 4.000000000000000
   TOP = .000000000000000
   BOTM = variable 3D double precision array ranging from -50.00000000000000 to -5.000000000000000
 Loading input complete...


 NPF -- NODE PROPERTY FLOW PACKAGE, VERSION 1, 3/30/2015 INPUT READ FROM UNIT 1007

 Loading input for FLOPY_MODELS_3/NPF
 # File generated by Flopy version 3.3.6 on 07/08/2023 at 09:49:36.
   ICELLTYPE = 1
   K = 1.532413100000000
 Loading input complete...

 Setting Discretization Options
 End Setting Discretization Options

 Setting Discretization Dimensions
    NLAY = 10
    NROW = 101
    NCOL = 101
 End Setting Discretization Dimensions

 Setting Discretization Griddata
    DELR set from input file
    DELC set from input file
    TOP set from input file
    BOTM set from input file
 End Setting Discretization Griddata

 Setting NPF Options
 End Setting NPF Options

 Setting NPF Griddata
    ICELLTYPE set from input file
    K set from input file
    K33 not provided.  Setting K33 = K.
    K22 not provided.  Setting K22 = K.
 End Setting NPF Griddata


 WEL   -- WEL PACKAGE, VERSION 8, 2/22/2014 INPUT READ FROM UNIT 1011
 # File generated by Flopy version 3.3.6 on 07/08/2023 at 09:49:36.

 PROCESSING WEL OPTIONS
 END OF WEL OPTIONS

 PROCESSING WEL DIMENSIONS
    MAXBOUND =       2
 END OF WEL DIMENSIONS

 RCH   -- RCH PACKAGE, VERSION 8, 2/22/2014 INPUT READ FROM UNIT 1012
 # File generated by Flopy version 3.3.6 on 07/08/2023 at 09:49:36.

 PROCESSING RCH OPTIONS
    RECHARGE INPUT WILL BE READ AS ARRAY(S).
 END OF RCHA OPTIONS

 EVT   -- EVT PACKAGE, VERSION 8, 2/22/2014 INPUT READ FROM UNIT 1013
 # File generated by Flopy version 3.3.6 on 07/08/2023 at 09:49:36.

 PROCESSING EVT OPTIONS
    EVAPOTRANSPIRATION INPUT WILL BE READ AS ARRAYS.
 END OF EVTA OPTIONS

 CHD   -- CHD PACKAGE, VERSION 8, 2/22/2014 INPUT READ FROM UNIT 1009
 # File generated by Flopy version 3.3.6 on 07/08/2023 at 09:49:36.

 PROCESSING CHD OPTIONS
 END OF CHD OPTIONS

 PROCESSING CHD DIMENSIONS
    MAXBOUND =     299
 END OF CHD DIMENSIONS

 IC -- INITIAL CONDITIONS PACKAGE, VERSION 8, 3/28/2015 INPUT READ FROM UNIT 1006
 # File generated by Flopy version 3.3.6 on 07/08/2023 at 09:49:35.
 PROCESSING GRIDDATA
 END PROCESSING GRIDDATA

 STO -- STORAGE PACKAGE, VERSION 1, 5/19/2014 INPUT READ FROM UNIT 1008


 # File generated by Flopy version 3.3.6 on 07/08/2023 at 09:49:36.
 PROCESSING STORAGE OPTIONS
 END OF STORAGE OPTIONS
 PROCESSING GRIDDATA

                 ICONVERT = 1

         SPECIFIC STORAGE =  0.1000000E-04

           SPECIFIC YIELD =  0.1500000    
 END PROCESSING GRIDDATA
    BINARY GRID INFORMATION WILL BE WRITTEN TO:
      UNIT NUMBER: 1015
      FILE NAME: C:\Users\ksil8584\OneDrive - The University of Sydney (Staff)\Documents\Modflow\FloPy models\FP_ModelS_3\output_3d\FloPy_ModelS_3.dis.grb

 OPENED C:\Users\ksil8584\OneDrive - The University of Sydney (Staff)\Documents\Modflow\FloPy models\FP_ModelS_3\output_3d\FloPy_ModelS_3.dis.grb
 FILE TYPE:DATA(BINARY)   UNIT 1015   STATUS:REPLACE             
 FORMAT:UNFORMATTED            ACCESS:STREAM              
 ACTION:READWRITE           

      THE LAST TIME STEP WILL BE PRINTED
      THE LAST TIME STEP WILL BE PRINTED
 # File generated by Flopy version 3.3.6 on 07/08/2023 at 09:49:36.

 PROCESSING OC OPTIONS

    BUDGET INFORMATION WILL BE WRITTEN TO:
      UNIT NUMBER: 1016
      FILE NAME: FloPy_ModelS_3.cbb

 OPENED FloPy_ModelS_3.cbb
 FILE TYPE:DATA(BINARY)   UNIT 1016   STATUS:REPLACE             
 FORMAT:UNFORMATTED            ACCESS:STREAM              
 ACTION:READWRITE           

    HEAD INFORMATION WILL BE WRITTEN TO:
      UNIT NUMBER: 1017
      FILE NAME: FloPy_ModelS_3.hds

 OPENED FloPy_ModelS_3.hds
 FILE TYPE:DATA(BINARY)   UNIT 1017   STATUS:REPLACE             
 FORMAT:UNFORMATTED            ACCESS:STREAM              
 ACTION:READWRITE           

 END OF OC OPTIONS

start timestep kper="1" kstp="1" mode="normal"


 BEGIN READING OUTPUT CONTROL FOR STRESS PERIOD 1
      ALL TIME STEPS WILL BE SAVED
      ALL TIME STEPS WILL BE SAVED
      THE LAST TIME STEP WILL BE PRINTED

 END READING OUTPUT CONTROL FOR STRESS PERIOD 1


 STRESS PERIOD 1 IS TRANSIENT


                 RECHARGE =  0.9601150E-02

               ET SURFACE =   105.0000    

  EVAPOTRANSPIRATION RATE =  0.3762407E-03

         EXTINCTION DEPTH =   10.00000    
 UBDSV1 SAVING           STO-SS ON UNIT   1016 AT TIME STEP      1, STRESS PERIOD      1
 UBDSV1 SAVING           STO-SY ON UNIT   1016 AT TIME STEP      1, STRESS PERIOD      1
 UBDSV1 SAVING     FLOW-JA-FACE ON UNIT   1016 AT TIME STEP      1, STRESS PERIOD      1
 UBDSV06 SAVING              WEL IN MODEL FLOPY_MODELS_3   PACKAGE FLOPY_MODELS_3  CONNECTED TO MODEL FLOPY_MODELS_3   PACKAGE WEL_0            ON UNIT   1016 AT TIME STEP      1, STRESS PERIOD      1
 UBDSV06 SAVING             RCHA IN MODEL FLOPY_MODELS_3   PACKAGE FLOPY_MODELS_3  CONNECTED TO MODEL FLOPY_MODELS_3   PACKAGE RCH              ON UNIT   1016 AT TIME STEP      1, STRESS PERIOD      1
 UBDSV06 SAVING            EVTA  IN MODEL FLOPY_MODELS_3   PACKAGE FLOPY_MODELS_3  CONNECTED TO MODEL FLOPY_MODELS_3   PACKAGE EVTA_0           ON UNIT   1016 AT TIME STEP      1, STRESS PERIOD      1
 UBDSV06 SAVING              CHD IN MODEL FLOPY_MODELS_3   PACKAGE FLOPY_MODELS_3  CONNECTED TO MODEL FLOPY_MODELS_3   PACKAGE CHD_0            ON UNIT   1016 AT TIME STEP      1, STRESS PERIOD      1
1
  HEAD IN LAYER   1 AT END OF TIME STEP   1 IN STRESS PERIOD    1
  ---------------------------------------------------------------------------

            1           2           3           4           5           6           7           8           9          10
           11          12          13          14          15          16          17          18          19          20
           21          22          23          24          25          26          27          28          29          30
           31          32          33          34          35          36          37          38          39          40
           41          42          43          44          45          46          47          48          49          50
           51          52          53          54          55          56          57          58          59          60
           61          62          63          64          65          66          67          68          69          70
           71          72          73          74          75          76          77          78          79          80
           81          82          83          84          85          86          87          88          89          90
           91          92          93          94          95          96          97          98          99         100
          101
 ........................................................................................................................
   1    99.64       100.0       100.0       100.0       100.0       100.0       100.0       100.0       100.0       100.0    
        100.0       100.0       100.0       100.0       100.0       100.0       100.0       100.0       100.0       100.0    
        100.0       100.0       100.0       100.0       100.0       100.0       100.0       100.0       100.0       100.0    
        100.0       100.0       100.0       100.0       100.0       100.0       100.0       100.0       100.0       100.0    
        100.0       100.0       100.0       100.0       100.0       100.0       100.0       100.0       100.0       100.0    
        100.0       100.0       100.0       100.0       100.0       100.0       100.0       100.0       100.0       100.0    
        100.0       100.0       100.0       100.0       100.0       100.0       100.0       100.0       100.0       100.0    
        100.0       100.0       100.0       100.0       100.0       100.0       100.0       100.0       100.0       100.0    
        100.0       100.0       100.0       100.0       100.0       100.0       100.0       100.0       100.0       100.0    
        100.0       100.0       100.0       100.0       100.0       100.0       100.0       100.0       100.0       100.0    
        100.0    
   2    99.44       99.53       99.56       99.57       99.57       99.57       99.57       99.57       99.56       99.56    
        99.55       99.55       99.54       99.54       99.53       99.52       99.52       99.51       99.51       99.50    
        99.50       99.50       99.49       99.49       99.49       99.49       99.49       99.49       99.50       99.50    
        99.50       99.51       99.51       99.52       99.53       99.53       99.54       99.55       99.55       99.56    
        99.57       99.58       99.58       99.59       99.59       99.60       99.60       99.61       99.61       99.61    
        99.61       99.61       99.62       99.62       99.62       99.61       99.61       99.61       99.61       99.61    
        99.60       99.60       99.59       99.59       99.59       99.58       99.58       99.58       99.58       99.58    
        99.57       99.57       99.57       99.58       99.58       99.58       99.59       99.59       99.60       99.61    
        99.62       99.63       99.64       99.65       99.66       99.67       99.68       99.70       99.71       99.72    
        99.74       99.75       99.77       99.78       99.80       99.81       99.83       99.85       99.88       99.92    
        100.0    
   3    99.24       99.27       99.29       99.30       99.30       99.30       99.29       99.29       99.28       99.27    
        99.26       99.25       99.24       99.23       99.22       99.21       99.20       99.19       99.18       99.18    
        99.17       99.16       99.16       99.16       99.15       99.15       99.16       99.16       99.16       99.17    
        99.18       99.18       99.19       99.20       99.22       99.23       99.24       99.25       99.26       99.27    
        99.29       99.30       99.31       99.32       99.33       99.33       99.34       99.35       99.35       99.36    
        99.36       99.36       99.36       99.36       99.36       99.36       99.36       99.36       99.35       99.35    
        99.34       99.33       99.33       99.32       99.32       99.31       99.31       99.30       99.30       99.29    
        99.29       99.29       99.29       99.30       99.30       99.31       99.31       99.32       99.34       99.35    
        99.36       99.38       99.40       99.41       99.43       99.45       99.48       99.50       99.52       99.54    
        99.56       99.59       99.61       99.64       99.66       99.69       99.72       99.76       99.81       99.88    
        100.0    
   4    99.08       99.09       99.09       99.10       99.10       99.09       99.09       99.08       99.07       99.06    
        99.05       99.03       99.02       99.01       98.99       98.98       98.97       98.95       98.94       98.93    
        98.92       98.92       98.91       98.91       98.90       98.90       98.91       98.91       98.92       98.92    
        98.93       98.94       98.96       98.97       98.98       99.00       99.02       99.03       99.05       99.06    
        99.08       99.09       99.11       99.12       99.13       99.14       99.15       99.16       99.17       99.17    
        99.18       99.18       99.18       99.18       99.18       99.18       99.17       99.17       99.16       99.16    
        99.15       99.14       99.13       99.12       99.12       99.11       99.10       99.09       99.09       99.08    
        99.08       99.08       99.08       99.09       99.09       99.10       99.11       99.12       99.14       99.15    
        99.17       99.19       99.22       99.24       99.27       99.29       99.32       99.35       99.38       99.41    
        99.44       99.47       99.50       99.53       99.57       99.60       99.65       99.70       99.76       99.85    
        100.0    
   5    98.94       98.94       98.94       98.94       98.94       98.93       98.92       98.91       98.90       98.89    
        98.87       98.86       98.84       98.83       98.81       98.79       98.78       98.76       98.75       98.74    
        98.72       98.71       98.71       98.70       98.70       98.70       98.70       98.71       98.71       98.72    
        98.73       98.75       98.76       98.78       98.80       98.82       98.84       98.85       98.87       98.89    
        98.91       98.93       98.95       98.96       98.97       98.99       99.00       99.01       99.02       99.02    
        99.03       99.03       99.03       99.03       99.03       99.03       99.02       99.02       99.01       99.00    
        98.99       98.98       98.97       98.96       98.95       98.94       98.93       98.93       98.92       98.91    
        98.91       98.91       98.91       98.91       98.92       98.93       98.94       98.96       98.97       98.99    
        99.02       99.04       99.07       99.10       99.13       99.16       99.19       99.23       99.26       99.30    
        99.33       99.37       99.41       99.45       99.49       99.54       99.59       99.65       99.72       99.83    
        100.0    
   6    98.82       98.82       98.81       98.81       98.81       98.80       98.79       98.78       98.76       98.75    
        98.73       98.71       98.69       98.67       98.65       98.63       98.61       98.60       98.58       98.56    
        98.55       98.54       98.53       98.52       98.52       98.52       98.52       98.53       98.54       98.55    
        98.56       98.58       98.60       98.62       98.64       98.66       98.68       98.70       98.73       98.75    
        98.77       98.79       98.81       98.83       98.84       98.86       98.87       98.88       98.89       98.90    
        98.90       98.91       98.91       98.91       98.91       98.90       98.90       98.89       98.88       98.87    
        98.86       98.85       98.84       98.82       98.81       98.80       98.79       98.78       98.77       98.76    
        98.76       98.76       98.76       98.76       98.77       98.78       98.79       98.81       98.83       98.85    
        98.88       98.91       98.94       98.97       99.01       99.04       99.08       99.12       99.16       99.20    
        99.25       99.29       99.33       99.38       99.43       99.48       99.54       99.61       99.69       99.81    
        100.0    
   7    98.71       98.71       98.70       98.70       98.69       98.68       98.67       98.65       98.64       98.62    
        98.60       98.58       98.56       98.53       98.51       98.49       98.47       98.45       98.43       98.41    
        98.39       98.38       98.37       98.36       98.36       98.36       98.36       98.37       98.38       98.39    
        98.41       98.42       98.44       98.47       98.49       98.52       98.54       98.57       98.59       98.62    
        98.64       98.67       98.69       98.71       98.73       98.74       98.76       98.77       98.78       98.79    
        98.80       98.80       98.80       98.80       98.80       98.79       98.79       98.78       98.77       98.76    
        98.74       98.73       98.72       98.70       98.69       98.67       98.66       98.65       98.63       98.63    
        98.62       98.62       98.62       98.62       98.63       98.64       98.65       98.67       98.70       98.72    
        98.75       98.78       98.82       98.86       98.90       98.94       98.98       99.03       99.07       99.12    
        99.17       99.21       99.26       99.32       99.37       99.43       99.49       99.57       99.67       99.80    
        100.0    
   8    98.61       98.61       98.60       98.59       98.59       98.57       98.56       98.54       98.52       98.50    
        98.48       98.46       98.43       98.41       98.38       98.36       98.33       98.31       98.28       98.26    
        98.24       98.23       98.22       98.21       98.20       98.20       98.21       98.21       98.22       98.24    
        98.26       98.28       98.30       98.33       98.36       98.38       98.41       98.44       98.47       98.50    
        98.53       98.55       98.58       98.60       98.62       98.64       98.66       98.67       98.68       98.69    
        98.70       98.70       98.70       98.70       98.70       98.69       98.69       98.68       98.66       98.65    
        98.64       98.62       98.60       98.59       98.57       98.55       98.53       98.52       98.51       98.50    
        98.49       98.48       98.48       98.49       98.49       98.51       98.52       98.54       98.57       98.60    
        98.63       98.67       98.71       98.75       98.79       98.84       98.89       98.94       98.99       99.04    
        99.09       99.15       99.20       99.26       99.32       99.38       99.45       99.54       99.64       99.78    
        100.0    
   9    98.52       98.51       98.51       98.50       98.49       98.48       98.46       98.44       98.42       98.40    
        98.37       98.34       98.32       98.29       98.26       98.23       98.20       98.17       98.15       98.12    
        98.10       98.08       98.07       98.06       98.05       98.05       98.06       98.06       98.08       98.09    
        98.12       98.14       98.17       98.20       98.23       98.26       98.29       98.32       98.36       98.39    
        98.42       98.45       98.48       98.50       98.52       98.54       98.56       98.58       98.59       98.60    
        98.61       98.61       98.61       98.61       98.61       98.60       98.59       98.58       98.57       98.55    
        98.53       98.52       98.50       98.48       98.46       98.44       98.42       98.40       98.38       98.37    
        98.36       98.35       98.35       98.35       98.36       98.37       98.39       98.41       98.44       98.47    
        98.51       98.55       98.60       98.64       98.69       98.74       98.80       98.85       98.91       98.96    
        99.02       99.08       99.14       99.20       99.27       99.34       99.42       99.51       99.62       99.77    
        100.0    
  10    98.43       98.43       98.42       98.41       98.40       98.38       98.37       98.34       98.32       98.29    
        98.27       98.24       98.20       98.17       98.14       98.11       98.07       98.04       98.01       97.98    
        97.96       97.94       97.92       97.91       97.91       97.90       97.91       97.92       97.93       97.95    
        97.98       98.00       98.03       98.07       98.10       98.14       98.17       98.21       98.25       98.28    
        98.32       98.35       98.38       98.41       98.43       98.46       98.48       98.49       98.51       98.52    
        98.52       98.53       98.53       98.53       98.52       98.51       98.50       98.49       98.48       98.46    
        98.44       98.42       98.39       98.37       98.35       98.32       98.30       98.28       98.26       98.25    
        98.23       98.23       98.22       98.22       98.23       98.24       98.26       98.29       98.32       98.35    
        98.39       98.44       98.49       98.54       98.59       98.65       98.71       98.77       98.83       98.89    
        98.96       99.02       99.08       99.15       99.22       99.30       99.38       99.48       99.59       99.76    
        100.0    
  11    98.35       98.35       98.34       98.33       98.31       98.30       98.28       98.25       98.23       98.20    
        98.17       98.13       98.10       98.06       98.02       97.99       97.95       97.91       97.88       97.85    
        97.82       97.80       97.78       97.77       97.76       97.76       97.76       97.77       97.79       97.81    
        97.84       97.87       97.90       97.94       97.98       98.02       98.06       98.10       98.14       98.18    
        98.22       98.25       98.29       98.32       98.35       98.37       98.39       98.41       98.43       98.44    
        98.44       98.45       98.45       98.45       98.44       98.43       98.42       98.41       98.39       98.37    
        98.35       98.32       98.30       98.27       98.24       98.22       98.19       98.16       98.14       98.12    
        98.11       98.10       98.09       98.09       98.10       98.11       98.13       98.16       98.19       98.23    
        98.27       98.32       98.38       98.43       98.49       98.56       98.62       98.69       98.75       98.82    
        98.89       98.96       99.03       99.10       99.18       99.26       99.34       99.45       99.57       99.74    
        100.0    
  12    98.27       98.27       98.26       98.25       98.23       98.22       98.19       98.17       98.14       98.11    
        98.07       98.03       97.99       97.95       97.91       97.87       97.83       97.79       97.75       97.71    
        97.68       97.65       97.63       97.62       97.61       97.61       97.61       97.62       97.64       97.67    
        97.70       97.73       97.77       97.81       97.86       97.90       97.95       98.00       98.04       98.08    
        98.12       98.16       98.20       98.23       98.26       98.29       98.31       98.33       98.35       98.36    
        98.37       98.37       98.38       98.37       98.37       98.36       98.34       98.33       98.31       98.28    
        98.26       98.23       98.20       98.17       98.14       98.11       98.08       98.05       98.02       98.00    
        97.98       97.97       97.96       97.96       97.96       97.98       98.00       98.03       98.06       98.10    
        98.15       98.21       98.27       98.33       98.40       98.46       98.53       98.61       98.68       98.75    
        98.83       98.90       98.97       99.05       99.13       99.22       99.31       99.42       99.55       99.73    
        100.0    
  13    98.20       98.20       98.19       98.18       98.16       98.14       98.11       98.08       98.05       98.02    
        97.98       97.94       97.89       97.85       97.80       97.75       97.71       97.66       97.62       97.58    
        97.54       97.51       97.49       97.47       97.46       97.46       97.46       97.48       97.50       97.52    
        97.56       97.60       97.64       97.69       97.74       97.79       97.84       97.89       97.94       97.99    
        98.03       98.08       98.12       98.15       98.19       98.21       98.24       98.26       98.28       98.29    
        98.30       98.30       98.30       98.30       98.29       98.28       98.27       98.25       98.23       98.20    
        98.17       98.14       98.11       98.07       98.04       98.00       97.97       97.93       97.90       97.87    
        97.85       97.83       97.82       97.82       97.83       97.84       97.86       97.89       97.93       97.98    
        98.03       98.09       98.16       98.22       98.30       98.37       98.45       98.53       98.60       98.68    
        98.76       98.84       98.92       99.00       99.09       99.18       99.28       99.39       99.53       99.72    
        100.0    
  14    98.13       98.13       98.12       98.10       98.09       98.06       98.04       98.01       97.97       97.93    
        97.89       97.84       97.80       97.75       97.69       97.64       97.59       97.54       97.49       97.44    
        97.40       97.37       97.34       97.32       97.31       97.30       97.31       97.32       97.35       97.38    
        97.42       97.46       97.51       97.57       97.62       97.68       97.73       97.79       97.84       97.90    
        97.95       97.99       98.04       98.08       98.11       98.14       98.17       98.19       98.21       98.22    
        98.23       98.24       98.24       98.23       98.22       98.21       98.19       98.17       98.15       98.12    
        98.09       98.05       98.02       97.98       97.94       97.90       97.86       97.82       97.78       97.75    
        97.72       97.70       97.69       97.68       97.69       97.70       97.72       97.76       97.80       97.85    
        97.91       97.97       98.04       98.12       98.20       98.28       98.36       98.45       98.53       98.62    
        98.70       98.79       98.87       98.96       99.05       99.14       99.25       99.37       99.51       99.71    
        100.0    
  15    98.07       98.06       98.05       98.04       98.02       97.99       97.96       97.93       97.89       97.85    
        97.80       97.75       97.70       97.65       97.59       97.53       97.47       97.41       97.36       97.31    
        97.26       97.22       97.19       97.16       97.15       97.15       97.15       97.17       97.20       97.24    
        97.28       97.33       97.39       97.44       97.51       97.57       97.63       97.69       97.75       97.81    
        97.86       97.91       97.96       98.00       98.04       98.07       98.10       98.13       98.15       98.16    
        98.17       98.17       98.17       98.17       98.16       98.15       98.13       98.10       98.08       98.04    
        98.01       97.97       97.93       97.88       97.84       97.79       97.75       97.70       97.66       97.62    
        97.59       97.56       97.55       97.54       97.54       97.56       97.58       97.62       97.66       97.72    
        97.78       97.85       97.93       98.01       98.10       98.19       98.28       98.37       98.46       98.55    
        98.64       98.73       98.82       98.91       99.01       99.11       99.22       99.34       99.49       99.70    
        100.0    
  16    98.01       98.00       97.99       97.98       97.95       97.93       97.90       97.86       97.82       97.77    
        97.72       97.67       97.61       97.55       97.49       97.42       97.36       97.29       97.23       97.17    
        97.12       97.07       97.04       97.01       96.99       96.99       97.00       97.02       97.05       97.09    
        97.14       97.20       97.26       97.32       97.39       97.46       97.53       97.60       97.66       97.72    
        97.78       97.84       97.89       97.93       97.97       98.01       98.04       98.07       98.09       98.10    
        98.11       98.12       98.12       98.11       98.10       98.08       98.06       98.04       98.01       97.97    
        97.93       97.89       97.84       97.79       97.74       97.69       97.64       97.59       97.54       97.50    
        97.46       97.43       97.41       97.40       97.40       97.41       97.44       97.47       97.52       97.59    
        97.66       97.73       97.82       97.91       98.00       98.10       98.20       98.29       98.39       98.49    
        98.58       98.68       98.78       98.87       98.97       99.08       99.19       99.32       99.48       99.68    
        100.0    
  17    97.95       97.94       97.93       97.92       97.89       97.87       97.83       97.79       97.75       97.70    
        97.65       97.59       97.52       97.46       97.39       97.32       97.24       97.17       97.10       97.04    
        96.98       96.93       96.89       96.86       96.84       96.83       96.84       96.86       96.90       96.94    
        97.00       97.06       97.13       97.21       97.28       97.36       97.43       97.51       97.58       97.64    
        97.71       97.76       97.82       97.87       97.91       97.95       97.98       98.01       98.03       98.05    
        98.06       98.06       98.06       98.05       98.04       98.02       98.00       97.97       97.94       97.90    
        97.86       97.81       97.76       97.71       97.65       97.59       97.53       97.48       97.42       97.37    
        97.33       97.29       97.27       97.25       97.25       97.26       97.29       97.33       97.39       97.45    
        97.53       97.62       97.71       97.81       97.91       98.01       98.12       98.22       98.32       98.43    
        98.53       98.63       98.73       98.83       98.94       99.04       99.16       99.30       99.46       99.67    
        100.0    
  18    97.90       97.89       97.88       97.86       97.84       97.81       97.77       97.73       97.68       97.63    
        97.57       97.51       97.44       97.37       97.29       97.22       97.14       97.06       96.98       96.91    
        96.84       96.79       96.74       96.70       96.68       96.68       96.69       96.71       96.75       96.80    
        96.86       96.93       97.01       97.09       97.17       97.26       97.34       97.42       97.49       97.57    
        97.63       97.70       97.76       97.81       97.85       97.89       97.93       97.96       97.98       98.00    
        98.01       98.01       98.01       98.00       97.99       97.97       97.95       97.92       97.88       97.84    
        97.79       97.74       97.69       97.63       97.56       97.50       97.43       97.37       97.31       97.25    
        97.20       97.16       97.13       97.11       97.10       97.12       97.15       97.19       97.25       97.32    
        97.41       97.50       97.60       97.71       97.82       97.93       98.04       98.15       98.26       98.37    
        98.48       98.58       98.69       98.79       98.90       99.02       99.14       99.28       99.44       99.67    
        100.0    
  19    97.85       97.84       97.83       97.81       97.79       97.76       97.72       97.67       97.62       97.57    
        97.51       97.44       97.36       97.29       97.21       97.12       97.04       96.95       96.87       96.79    
        96.71       96.65       96.59       96.55       96.53       96.52       96.53       96.56       96.61       96.66    
        96.73       96.81       96.89       96.98       97.07       97.16       97.25       97.34       97.42       97.50    
        97.57       97.64       97.70       97.75       97.80       97.84       97.88       97.91       97.93       97.95    
        97.96       97.96       97.96       97.96       97.94       97.92       97.89       97.86       97.82       97.78    
        97.73       97.67       97.61       97.55       97.48       97.41       97.34       97.27       97.20       97.13    
        97.07       97.03       96.99       96.97       96.96       96.97       97.00       97.05       97.12       97.19    
        97.29       97.39       97.50       97.61       97.73       97.85       97.97       98.08       98.20       98.32    
        98.43       98.54       98.65       98.76       98.87       98.99       99.11       99.26       99.43       99.66    
        100.0    
  20    97.81       97.80       97.79       97.77       97.74       97.71       97.67       97.62       97.57       97.51    
        97.44       97.37       97.30       97.21       97.12       97.03       96.94       96.85       96.76       96.67    
        96.59       96.52       96.46       96.41       96.39       96.38       96.39       96.42       96.47       96.53    
        96.61       96.69       96.79       96.88       96.98       97.08       97.17       97.26       97.35       97.43    
        97.51       97.58       97.64       97.70       97.75       97.80       97.83       97.87       97.89       97.91    
        97.92       97.92       97.92       97.91       97.90       97.88       97.85       97.81       97.77       97.73    
        97.67       97.61       97.55       97.48       97.41       97.33       97.25       97.17       97.09       97.02    
        96.96       96.90       96.86       96.83       96.82       96.84       96.87       96.92       96.99       97.07    
        97.17       97.28       97.40       97.52       97.65       97.77       97.90       98.02       98.15       98.27    
        98.38       98.50       98.61       98.73       98.84       98.96       99.09       99.24       99.42       99.65    
        100.0    
  21    97.77       97.76       97.75       97.73       97.70       97.67       97.63       97.58       97.52       97.46    
        97.39       97.31       97.23       97.14       97.05       96.96       96.86       96.76       96.66       96.56    
        96.47       96.39       96.33       96.28       96.25       96.24       96.26       96.29       96.34       96.41    
        96.49       96.59       96.69       96.79       96.89       97.00       97.10       97.20       97.29       97.38    
        97.46       97.53       97.60       97.66       97.71       97.76       97.80       97.83       97.85       97.87    
        97.88       97.89       97.89       97.88       97.86       97.84       97.81       97.77       97.73       97.68    
        97.62       97.56       97.49       97.42       97.34       97.25       97.17       97.08       97.00       96.92    
        96.85       96.79       96.74       96.71       96.70       96.71       96.74       96.80       96.87       96.96    
        97.07       97.18       97.31       97.44       97.57       97.71       97.84       97.97       98.10       98.22    
        98.35       98.47       98.58       98.70       98.82       98.94       99.08       99.23       99.40       99.64    
        100.0    
  22    97.74       97.73       97.72       97.70       97.67       97.63       97.59       97.54       97.48       97.42    
        97.34       97.26       97.18       97.09       96.99       96.89       96.78       96.67       96.57       96.47    
        96.37       96.29       96.22       96.16       96.13       96.12       96.13       96.17       96.23       96.30    
        96.39       96.49       96.60       96.71       96.82       96.93       97.04       97.14       97.24       97.33    
        97.41       97.49       97.56       97.62       97.67       97.72       97.76       97.80       97.82       97.84    
        97.85       97.86       97.85       97.84       97.83       97.80       97.77       97.74       97.69       97.64    
        97.58       97.51       97.44       97.36       97.28       97.19       97.10       97.01       96.92       96.83    
        96.75       96.69       96.63       96.60       96.58       96.59       96.63       96.69       96.76       96.86    
        96.97       97.10       97.23       97.37       97.51       97.65       97.79       97.92       98.06       98.19    
        98.31       98.44       98.56       98.68       98.80       98.93       99.06       99.21       99.40       99.64    
        100.0    
  23    97.71       97.70       97.69       97.67       97.64       97.60       97.56       97.51       97.45       97.38    
        97.31       97.22       97.13       97.04       96.94       96.83       96.72       96.61       96.50       96.39    
        96.29       96.20       96.12       96.06       96.03       96.02       96.03       96.07       96.13       96.21    
        96.31       96.41       96.53       96.64       96.76       96.87       96.99       97.09       97.19       97.29    
        97.37       97.45       97.52       97.59       97.64       97.69       97.73       97.77       97.80       97.81    
        97.83       97.83       97.83       97.82       97.80       97.78       97.75       97.71       97.66       97.61    
        97.54       97.48       97.40       97.32       97.23       97.14       97.04       96.95       96.85       96.76    
        96.67       96.60       96.54       96.50       96.49       96.50       96.53       96.59       96.68       96.78    
        96.90       97.03       97.17       97.31       97.46       97.60       97.75       97.89       98.02       98.16    
        98.29       98.41       98.54       98.66       98.78       98.91       99.05       99.20       99.39       99.63    
        100.0    
  24    97.69       97.68       97.67       97.65       97.62       97.58       97.53       97.48       97.42       97.35    
        97.28       97.19       97.10       97.00       96.90       96.79       96.67       96.56       96.44       96.33    
        96.22       96.13       96.05       95.99       95.95       95.94       95.96       96.00       96.06       96.14    
        96.24       96.35       96.47       96.59       96.71       96.83       96.95       97.06       97.16       97.26    
        97.34       97.43       97.50       97.56       97.62       97.67       97.71       97.75       97.78       97.79    
        97.81       97.81       97.81       97.80       97.78       97.76       97.72       97.68       97.64       97.58    
        97.52       97.45       97.37       97.29       97.20       97.10       97.00       96.90       96.80       96.70    
        96.61       96.54       96.47       96.43       96.42       96.42       96.46       96.52       96.61       96.72    
        96.84       96.98       97.12       97.27       97.42       97.57       97.71       97.86       98.00       98.13    
        98.27       98.40       98.52       98.65       98.77       98.90       99.04       99.20       99.38       99.63    
        100.0    
  25    97.67       97.67       97.65       97.63       97.60       97.56       97.52       97.46       97.40       97.33    
        97.25       97.17       97.08       96.98       96.87       96.76       96.64       96.52       96.40       96.29    
        96.18       96.08       96.00       95.94       95.90       95.89       95.90       95.95       96.01       96.10    
        96.20       96.31       96.43       96.56       96.68       96.80       96.92       97.03       97.14       97.23    
        97.32       97.41       97.48       97.55       97.61       97.66       97.70       97.73       97.76       97.78    
        97.79       97.80       97.80       97.79       97.77       97.74       97.71       97.67       97.62       97.56    
        97.50       97.43       97.35       97.26       97.17       97.07       96.97       96.87       96.77       96.67    
        96.58       96.50       96.43       96.39       96.37       96.38       96.42       96.48       96.57       96.68    
        96.80       96.94       97.09       97.24       97.39       97.55       97.69       97.84       97.98       98.12    
        98.25       98.38       98.51       98.64       98.77       98.90       99.04       99.19       99.38       99.63    
        100.0    
  26    97.66       97.66       97.64       97.62       97.59       97.55       97.51       97.45       97.39       97.32    
        97.24       97.16       97.06       96.96       96.86       96.74       96.63       96.51       96.39       96.27    
        96.16       96.06       95.98       95.92       95.88       95.87       95.88       95.92       95.99       96.08    
        96.18       96.30       96.42       96.54       96.67       96.79       96.91       97.02       97.13       97.22    
        97.31       97.40       97.47       97.54       97.60       97.65       97.69       97.72       97.75       97.77    
        97.78       97.79       97.79       97.78       97.76       97.73       97.70       97.66       97.61       97.56    
        97.49       97.42       97.34       97.25       97.16       97.06       96.96       96.86       96.75       96.65    
        96.56       96.48       96.42       96.37       96.35       96.36       96.40       96.46       96.55       96.66    
        96.79       96.93       97.08       97.23       97.38       97.54       97.69       97.83       97.98       98.12    
        98.25       98.38       98.51       98.64       98.76       98.89       99.03       99.19       99.38       99.63    
        100.0    
  27    97.66       97.65       97.64       97.62       97.59       97.55       97.50       97.45       97.39       97.32    
        97.24       97.16       97.06       96.96       96.86       96.74       96.63       96.51       96.39       96.27    
        96.16       96.07       95.99       95.92       95.89       95.87       95.89       95.93       96.00       96.09    
        96.19       96.30       96.42       96.55       96.67       96.79       96.91       97.02       97.12       97.22    
        97.31       97.39       97.47       97.54       97.59       97.64       97.69       97.72       97.75       97.77    
        97.78       97.79       97.79       97.78       97.76       97.73       97.70       97.66       97.61       97.56    
        97.49       97.42       97.34       97.26       97.16       97.07       96.97       96.86       96.76       96.66    
        96.57       96.49       96.43       96.38       96.36       96.37       96.41       96.47       96.56       96.67    
        96.80       96.94       97.09       97.24       97.39       97.54       97.69       97.84       97.98       98.12    
        98.25       98.38       98.51       98.64       98.76       98.90       99.03       99.19       99.38       99.63    
        100.0    
  28    97.66       97.65       97.64       97.62       97.59       97.55       97.51       97.45       97.39       97.32    
        97.25       97.16       97.07       96.97       96.87       96.76       96.64       96.53       96.41       96.30    
        96.19       96.10       96.02       95.96       95.92       95.91       95.93       95.97       96.03       96.12    
        96.22       96.33       96.45       96.57       96.69       96.81       96.92       97.03       97.14       97.23    
        97.32       97.40       97.48       97.54       97.60       97.65       97.69       97.73       97.75       97.77    
        97.79       97.79       97.79       97.78       97.76       97.74       97.71       97.67       97.62       97.56    
        97.50       97.43       97.35       97.27       97.18       97.09       96.99       96.89       96.79       96.69    
        96.60       96.52       96.46       96.42       96.41       96.42       96.45       96.51       96.60       96.71    
        96.83       96.97       97.11       97.26       97.41       97.56       97.71       97.85       98.00       98.13    
        98.26       98.39       98.52       98.65       98.77       98.90       99.04       99.20       99.38       99.63    
        100.0    
  29    97.67       97.66       97.65       97.63       97.60       97.56       97.52       97.46       97.40       97.34    
        97.26       97.18       97.09       97.00       96.90       96.79       96.68       96.57       96.45       96.35    
        96.25       96.16       96.08       96.02       95.99       95.98       95.99       96.03       96.09       96.17    
        96.27       96.38       96.49       96.61       96.72       96.84       96.95       97.06       97.16       97.25    
        97.34       97.42       97.49       97.55       97.61       97.66       97.70       97.74       97.76       97.78    
        97.80       97.80       97.80       97.79       97.77       97.75       97.72       97.68       97.63       97.58    
        97.52       97.45       97.38       97.30       97.21       97.12       97.02       96.93       96.83       96.74    
        96.66       96.58       96.53       96.49       96.47       96.48       96.52       96.58       96.66       96.77    
        96.89       97.02       97.16       97.30       97.45       97.60       97.74       97.88       98.02       98.15    
        98.28       98.41       98.53       98.66       98.78       98.91       99.05       99.20       99.39       99.63    
        100.0    
  30    97.68       97.67       97.66       97.64       97.61       97.57       97.53       97.48       97.42       97.36    
        97.29       97.21       97.12       97.03       96.93       96.83       96.73       96.62       96.51       96.41    
        96.32       96.23       96.16       96.11       96.08       96.07       96.08       96.12       96.18       96.25    
        96.34       96.44       96.55       96.66       96.77       96.88       96.99       97.09       97.19       97.28    
        97.36       97.44       97.51       97.57       97.63       97.68       97.72       97.75       97.78       97.80    
        97.81       97.82       97.81       97.81       97.79       97.77       97.74       97.70       97.66       97.60    
        97.55       97.48       97.41       97.33       97.25       97.16       97.07       96.98       96.89       96.81    
        96.73       96.66       96.61       96.58       96.56       96.57       96.61       96.67       96.75       96.85    
        96.96       97.09       97.22       97.36       97.50       97.64       97.78       97.92       98.05       98.18    
        98.31       98.43       98.55       98.68       98.80       98.92       99.06       99.21       99.39       99.64    
        100.0    
  31    97.70       97.69       97.68       97.66       97.63       97.60       97.55       97.51       97.45       97.39    
        97.32       97.24       97.16       97.07       96.98       96.89       96.79       96.69       96.59       96.49    
        96.40       96.33       96.26       96.21       96.18       96.18       96.19       96.22       96.28       96.35    
        96.43       96.52       96.62       96.73       96.83       96.94       97.04       97.14       97.23       97.32    
        97.40       97.47       97.54       97.60       97.65       97.70       97.74       97.77       97.80       97.82    
        97.83       97.84       97.83       97.83       97.81       97.79       97.76       97.73       97.68       97.64    
        97.58       97.52       97.45       97.38       97.30       97.22       97.13       97.05       96.97       96.89    
        96.82       96.76       96.71       96.68       96.67       96.68       96.72       96.77       96.85       96.94    
        97.05       97.17       97.29       97.43       97.56       97.69       97.83       97.96       98.09       98.22    
        98.34       98.46       98.58       98.70       98.82       98.94       99.07       99.22       99.40       99.64    
        100.0    
  32    97.72       97.72       97.70       97.68       97.66       97.62       97.58       97.54       97.48       97.43    
        97.36       97.29       97.21       97.13       97.04       96.95       96.86       96.76       96.67       96.59    
        96.50       96.43       96.37       96.33       96.30       96.30       96.31       96.34       96.39       96.45    
        96.53       96.62       96.71       96.80       96.90       97.00       97.10       97.19       97.28       97.36    
        97.44       97.51       97.57       97.63       97.68       97.73       97.77       97.80       97.82       97.84    
        97.86       97.86       97.86       97.85       97.84       97.82       97.79       97.76       97.72       97.67    
        97.62       97.56       97.50       97.43       97.36       97.28       97.21       97.13       97.05       96.98    
        96.92       96.87       96.83       96.80       96.79       96.81       96.84       96.89       96.96       97.05    
        97.15       97.26       97.38       97.50       97.63       97.76       97.89       98.01       98.14       98.26    
        98.38       98.49       98.61       98.72       98.84       98.96       99.09       99.24       99.41       99.65    
        100.0    
  33    97.75       97.74       97.73       97.71       97.69       97.66       97.62       97.57       97.52       97.47    
        97.41       97.34       97.26       97.19       97.11       97.02       96.94       96.85       96.77       96.69    
        96.61       96.55       96.50       96.46       96.44       96.43       96.44       96.47       96.51       96.57    
        96.64       96.72       96.80       96.89       96.98       97.07       97.16       97.25       97.33       97.41    
        97.48       97.55       97.61       97.67       97.72       97.76       97.80       97.83       97.85       97.87    
        97.88       97.89       97.89       97.88       97.87       97.85       97.83       97.80       97.76       97.72    
        97.67       97.61       97.56       97.49       97.43       97.36       97.29       97.22       97.15       97.09    
        97.03       96.98       96.95       96.93       96.93       96.94       96.97       97.02       97.09       97.17    
        97.26       97.36       97.47       97.59       97.71       97.83       97.95       98.07       98.19       98.30    
        98.42       98.53       98.64       98.75       98.87       98.99       99.11       99.26       99.43       99.66    
        100.0    
  34    97.78       97.78       97.76       97.75       97.72       97.69       97.66       97.62       97.57       97.52    
        97.46       97.39       97.33       97.25       97.18       97.10       97.02       96.95       96.87       96.80    
        96.73       96.67       96.63       96.59       96.57       96.57       96.58       96.60       96.64       96.69    
        96.76       96.83       96.91       96.99       97.07       97.15       97.24       97.32       97.39       97.47    
        97.54       97.60       97.66       97.71       97.76       97.80       97.84       97.87       97.89       97.91    
        97.92       97.93       97.93       97.92       97.91       97.89       97.87       97.84       97.81       97.77    
        97.72       97.67       97.62       97.56       97.50       97.44       97.37       97.31       97.25       97.20    
        97.15       97.11       97.08       97.06       97.06       97.08       97.11       97.15       97.22       97.29    
        97.38       97.47       97.57       97.68       97.79       97.91       98.02       98.13       98.25       98.36    
        98.47       98.57       98.68       98.79       98.90       99.01       99.14       99.27       99.44       99.66    
        100.0    
  35    97.82       97.81       97.80       97.78       97.76       97.73       97.70       97.66       97.62       97.57    
        97.51       97.45       97.39       97.33       97.26       97.19       97.12       97.04       96.98       96.91    
        96.85       96.80       96.76       96.73       96.71       96.71       96.72       96.74       96.78       96.82    
        96.88       96.94       97.01       97.09       97.16       97.24       97.32       97.39       97.46       97.53    
        97.59       97.65       97.71       97.76       97.80       97.84       97.88       97.91       97.93       97.95    
        97.96       97.96       97.96       97.96       97.95       97.93       97.91       97.89       97.86       97.82    
        97.78       97.73       97.69       97.63       97.58       97.52       97.47       97.41       97.36       97.31    
        97.27       97.24       97.21       97.20       97.20       97.22       97.25       97.29       97.35       97.42    
        97.50       97.58       97.68       97.78       97.88       97.99       98.09       98.20       98.31       98.41    
        98.52       98.62       98.72       98.82       98.93       99.04       99.16       99.29       99.46       99.67    
        100.0    
  36    97.86       97.85       97.84       97.83       97.81       97.78       97.75       97.71       97.67       97.62    
        97.57       97.52       97.46       97.40       97.34       97.27       97.21       97.15       97.09       97.03    
        96.98       96.93       96.89       96.87       96.85       96.85       96.86       96.88       96.91       96.95    
        97.00       97.06       97.12       97.19       97.26       97.33       97.40       97.47       97.53       97.60    
        97.66       97.71       97.76       97.81       97.85       97.89       97.92       97.95       97.97       97.99    
        98.00       98.01       98.01       98.00       97.99       97.98       97.96       97.94       97.91       97.88    
        97.84       97.80       97.76       97.71       97.66       97.61       97.56       97.51       97.47       97.43    
        97.39       97.36       97.35       97.34       97.34       97.36       97.39       97.43       97.48       97.54    
        97.62       97.70       97.78       97.88       97.97       98.07       98.17       98.27       98.37       98.47    
        98.57       98.67       98.76       98.86       98.97       99.07       99.19       99.32       99.47       99.68    
        100.0    
  37    97.90       97.90       97.89       97.87       97.85       97.83       97.80       97.76       97.73       97.68    
        97.64       97.59       97.54       97.48       97.42       97.37       97.31       97.25       97.20       97.15    
        97.10       97.06       97.03       97.00       96.99       96.99       97.00       97.02       97.04       97.08    
        97.13       97.18       97.23       97.29       97.36       97.42       97.48       97.55       97.61       97.67    
        97.72       97.77       97.82       97.86       97.90       97.94       97.97       98.00       98.02       98.03    
        98.04       98.05       98.05       98.05       98.04       98.03       98.01       97.99       97.97       97.94    
        97.91       97.87       97.83       97.79       97.75       97.70       97.66       97.62       97.58       97.54    
        97.51       97.49       97.48       97.47       97.48       97.49       97.52       97.56       97.61       97.67    
        97.74       97.81       97.89       97.98       98.07       98.16       98.25       98.34       98.44       98.53    
        98.62       98.72       98.81       98.90       99.00       99.10       99.21       99.34       99.49       99.69    
        100.0    
  38    97.95       97.94       97.93       97.92       97.90       97.88       97.85       97.82       97.79       97.75    
        97.71       97.66       97.61       97.56       97.51       97.46       97.41       97.36       97.31       97.26    
        97.22       97.19       97.16       97.14       97.13       97.13       97.13       97.15       97.18       97.21    
        97.25       97.29       97.34       97.40       97.46       97.51       97.57       97.63       97.68       97.74    
        97.79       97.84       97.88       97.92       97.96       97.99       98.02       98.05       98.07       98.08    
        98.09       98.10       98.10       98.10       98.09       98.08       98.07       98.05       98.03       98.00    
        97.97       97.94       97.91       97.87       97.83       97.79       97.76       97.72       97.69       97.66    
        97.64       97.62       97.61       97.61       97.61       97.63       97.66       97.69       97.74       97.79    
        97.86       97.92       98.00       98.08       98.16       98.24       98.33       98.42       98.50       98.59    
        98.68       98.77       98.86       98.95       99.04       99.14       99.24       99.36       99.51       99.71    
        100.0    
  39    98.00       97.99       97.98       97.97       97.95       97.93       97.91       97.88       97.85       97.81    
        97.77       97.73       97.69       97.64       97.60       97.55       97.50       97.46       97.42       97.38    
        97.34       97.31       97.29       97.27       97.26       97.26       97.27       97.28       97.30       97.33    
        97.37       97.41       97.46       97.50       97.55       97.61       97.66       97.71       97.76       97.81    
        97.86       97.90       97.94       97.98       98.02       98.05       98.07       98.10       98.12       98.13    
        98.14       98.15       98.15       98.15       98.15       98.14       98.13       98.11       98.09       98.07    
        98.04       98.01       97.98       97.95       97.92       97.89       97.86       97.83       97.80       97.77    
        97.75       97.74       97.73       97.73       97.74       97.76       97.79       97.82       97.86       97.91    
        97.97       98.03       98.10       98.18       98.25       98.33       98.41       98.49       98.57       98.66    
        98.74       98.82       98.90       98.99       99.08       99.17       99.27       99.39       99.53       99.72    
        100.0    
  40    98.05       98.04       98.03       98.02       98.01       97.99       97.97       97.94       97.91       97.88    
        97.84       97.81       97.77       97.73       97.69       97.64       97.60       97.56       97.53       97.49    
        97.46       97.43       97.41       97.40       97.39       97.39       97.40       97.41       97.43       97.46    
        97.49       97.52       97.56       97.61       97.65       97.70       97.75       97.79       97.84       97.89    
        97.93       97.97       98.01       98.04       98.08       98.10       98.13       98.15       98.17       98.18    
        98.20       98.20       98.21       98.21       98.20       98.19       98.18       98.17       98.15       98.13    
        98.11       98.09       98.06       98.03       98.01       97.98       97.95       97.93       97.90       97.89    
        97.87       97.86       97.86       97.86       97.87       97.89       97.91       97.94       97.98       98.03    
        98.08       98.14       98.21       98.27       98.34       98.41       98.49       98.56       98.64       98.72    
        98.80       98.87       98.95       99.03       99.12       99.21       99.30       99.41       99.55       99.73    
        100.0    
  41    98.10       98.10       98.09       98.08       98.06       98.05       98.03       98.00       97.98       97.95    
        97.92       97.88       97.85       97.81       97.77       97.74       97.70       97.66       97.63       97.60    
        97.57       97.55       97.53       97.52       97.51       97.51       97.52       97.53       97.55       97.57    
        97.60       97.63       97.67       97.71       97.75       97.79       97.83       97.88       97.92       97.96    
        98.00       98.04       98.07       98.11       98.14       98.16       98.19       98.21       98.22       98.24    
        98.25       98.26       98.26       98.26       98.26       98.25       98.24       98.23       98.22       98.20    
        98.18       98.16       98.14       98.12       98.09       98.07       98.05       98.03       98.01       97.99    
        97.98       97.98       97.97       97.98       97.99       98.01       98.03       98.06       98.10       98.14    
        98.19       98.25       98.30       98.37       98.43       98.50       98.57       98.64       98.71       98.78    
        98.85       98.93       99.00       99.08       99.16       99.24       99.33       99.44       99.57       99.74    
        100.0    
  42    98.15       98.15       98.14       98.13       98.12       98.11       98.09       98.07       98.04       98.02    
        97.99       97.96       97.93       97.89       97.86       97.83       97.79       97.76       97.73       97.71    
        97.68       97.67       97.65       97.64       97.63       97.63       97.64       97.65       97.67       97.69    
        97.71       97.74       97.77       97.81       97.85       97.88       97.92       97.96       98.00       98.04    
        98.07       98.11       98.14       98.17       98.20       98.22       98.25       98.26       98.28       98.29    
        98.31       98.31       98.32       98.32       98.32       98.31       98.30       98.30       98.28       98.27    
        98.25       98.24       98.22       98.20       98.18       98.16       98.14       98.12       98.11       98.10    
        98.09       98.09       98.09       98.09       98.11       98.12       98.15       98.18       98.21       98.25    
        98.30       98.35       98.40       98.46       98.52       98.58       98.64       98.71       98.78       98.84    
        98.91       98.98       99.05       99.12       99.20       99.28       99.37       99.47       99.59       99.75    
        100.0    
  43    98.21       98.21       98.20       98.19       98.18       98.17       98.15       98.13       98.11       98.08    
        98.06       98.03       98.00       97.97       97.95       97.92       97.89       97.86       97.84       97.81    
        97.79       97.77       97.76       97.75       97.75       97.75       97.75       97.76       97.78       97.80    
        97.82       97.85       97.87       97.91       97.94       97.97       98.01       98.04       98.08       98.11    
        98.14       98.18       98.21       98.23       98.26       98.28       98.30       98.32       98.34       98.35    
        98.36       98.37       98.37       98.38       98.38       98.37       98.37       98.36       98.35       98.34    
        98.32       98.31       98.29       98.28       98.26       98.25       98.23       98.22       98.21       98.20    
        98.20       98.19       98.20       98.20       98.22       98.23       98.26       98.28       98.32       98.36    
        98.40       98.44       98.49       98.55       98.60       98.66       98.72       98.78       98.84       98.91    
        98.97       99.03       99.10       99.17       99.24       99.31       99.40       99.49       99.61       99.77    
        100.0    
  44    98.27       98.26       98.26       98.25       98.24       98.23       98.21       98.19       98.17       98.15    
        98.13       98.11       98.08       98.05       98.03       98.00       97.98       97.95       97.93       97.91    
        97.89       97.88       97.87       97.86       97.86       97.86       97.86       97.87       97.89       97.90    
        97.92       97.95       97.97       98.00       98.03       98.06       98.09       98.12       98.16       98.19    
        98.22       98.25       98.27       98.30       98.32       98.34       98.36       98.38       98.40       98.41    
        98.42       98.43       98.43       98.43       98.43       98.43       98.43       98.42       98.41       98.41    
        98.39       98.38       98.37       98.36       98.34       98.33       98.32       98.31       98.30       98.30    
        98.30       98.30       98.30       98.31       98.32       98.34       98.36       98.39       98.42       98.45    
        98.49       98.54       98.58       98.63       98.68       98.74       98.79       98.85       98.91       98.97    
        99.03       99.09       99.15       99.21       99.28       99.35       99.43       99.52       99.63       99.78    
        100.0    
  45    98.32       98.32       98.32       98.31       98.30       98.29       98.27       98.26       98.24       98.22    
        98.20       98.18       98.16       98.13       98.11       98.09       98.07       98.05       98.03       98.01    
        97.99       97.98       97.97       97.97       97.96       97.96       97.97       97.98       97.99       98.00    
        98.02       98.04       98.07       98.09       98.12       98.15       98.17       98.20       98.23       98.26    
        98.29       98.31       98.34       98.36       98.39       98.41       98.42       98.44       98.46       98.47    
        98.48       98.48       98.49       98.49       98.49       98.49       98.49       98.49       98.48       98.47    
        98.46       98.46       98.45       98.44       98.43       98.42       98.41       98.40       98.39       98.39    
        98.39       98.39       98.40       98.41       98.42       98.44       98.46       98.49       98.52       98.55    
        98.59       98.63       98.67       98.71       98.76       98.81       98.86       98.92       98.97       99.02    
        99.08       99.14       99.20       99.26       99.32       99.39       99.46       99.55       99.65       99.79    
        100.0    
  46    98.38       98.38       98.37       98.37       98.36       98.35       98.34       98.32       98.31       98.29    
        98.27       98.25       98.23       98.21       98.19       98.17       98.15       98.13       98.12       98.10    
        98.09       98.08       98.07       98.07       98.06       98.07       98.07       98.08       98.09       98.10    
        98.12       98.14       98.16       98.18       98.20       98.23       98.25       98.28       98.31       98.33    
        98.36       98.38       98.41       98.43       98.45       98.47       98.48       98.50       98.51       98.53    
        98.54       98.54       98.55       98.55       98.55       98.55       98.55       98.55       98.55       98.54    
        98.53       98.53       98.52       98.51       98.50       98.50       98.49       98.49       98.48       98.48    
        98.48       98.49       98.49       98.50       98.52       98.53       98.56       98.58       98.61       98.64    
        98.67       98.71       98.75       98.79       98.84       98.88       98.93       98.98       99.03       99.08    
        99.13       99.19       99.24       99.30       99.36       99.42       99.49       99.57       99.67       99.80    
        100.0    
  47    98.44       98.44       98.43       98.43       98.42       98.41       98.40       98.38       98.37       98.36    
        98.34       98.32       98.31       98.29       98.27       98.25       98.24       98.22       98.21       98.19    
        98.18       98.17       98.17       98.16       98.16       98.16       98.17       98.17       98.18       98.19    
        98.21       98.23       98.25       98.27       98.29       98.31       98.33       98.36       98.38       98.40    
        98.43       98.45       98.47       98.49       98.51       98.53       98.54       98.56       98.57       98.58    
        98.59       98.60       98.61       98.61       98.61       98.61       98.61       98.61       98.61       98.61    
        98.60       98.60       98.59       98.58       98.58       98.57       98.57       98.57       98.57       98.57    
        98.57       98.58       98.58       98.59       98.61       98.62       98.64       98.67       98.69       98.72    
        98.76       98.79       98.83       98.87       98.91       98.95       99.00       99.04       99.09       99.14    
        99.19       99.24       99.29       99.34       99.40       99.46       99.52       99.60       99.69       99.81    
        100.0    
  48    98.49       98.49       98.49       98.48       98.48       98.47       98.46       98.45       98.44       98.42    
        98.41       98.39       98.38       98.36       98.35       98.33       98.32       98.30       98.29       98.28    
        98.27       98.26       98.26       98.25       98.25       98.25       98.26       98.26       98.27       98.28    
        98.30       98.31       98.33       98.35       98.37       98.39       98.41       98.43       98.45       98.47    
        98.50       98.52       98.54       98.55       98.57       98.59       98.60       98.62       98.63       98.64    
        98.65       98.66       98.66       98.67       98.67       98.67       98.67       98.67       98.67       98.67    
        98.67       98.66       98.66       98.66       98.65       98.65       98.65       98.65       98.65       98.65    
        98.65       98.66       98.67       98.68       98.69       98.71       98.73       98.75       98.78       98.81    
        98.84       98.87       98.90       98.94       98.98       99.02       99.06       99.10       99.15       99.19    
        99.24       99.28       99.33       99.38       99.43       99.49       99.55       99.62       99.71       99.82    
        100.0    
  49    98.55       98.55       98.55       98.54       98.54       98.53       98.52       98.51       98.50       98.49    
        98.47       98.46       98.45       98.43       98.42       98.41       98.39       98.38       98.37       98.36    
        98.35       98.35       98.34       98.34       98.34       98.34       98.35       98.35       98.36       98.37    
        98.38       98.40       98.41       98.43       98.45       98.46       98.48       98.50       98.52       98.54    
        98.56       98.58       98.60       98.62       98.63       98.65       98.66       98.68       98.69       98.70    
        98.71       98.72       98.72       98.73       98.73       98.73       98.73       98.73       98.73       98.73    
        98.73       98.73       98.73       98.73       98.72       98.72       98.72       98.72       98.73       98.73    
        98.73       98.74       98.75       98.76       98.78       98.79       98.81       98.83       98.86       98.88    
        98.91       98.94       98.97       99.01       99.05       99.08       99.12       99.16       99.20       99.24    
        99.29       99.33       99.37       99.42       99.47       99.52       99.58       99.65       99.73       99.84    
        100.0    
  50    98.61       98.61       98.60       98.60       98.59       98.59       98.58       98.57       98.56       98.55    
        98.54       98.53       98.52       98.50       98.49       98.48       98.47       98.46       98.45       98.44    
        98.43       98.43       98.43       98.42       98.42       98.42       98.43       98.43       98.44       98.45    
        98.46       98.48       98.49       98.50       98.52       98.54       98.56       98.57       98.59       98.61    
        98.63       98.64       98.66       98.68       98.69       98.71       98.72       98.73       98.74       98.75    
        98.76       98.77       98.78       98.78       98.79       98.79       98.79       98.79       98.80       98.80    
        98.80       98.79       98.79       98.79       98.79       98.79       98.79       98.80       98.80       98.80    
        98.81       98.82       98.83       98.84       98.85       98.87       98.89       98.91       98.93       98.96    
        98.98       99.01       99.04       99.07       99.11       99.14       99.18       99.22       99.25       99.29    
        99.33       99.37       99.42       99.46       99.50       99.55       99.61       99.67       99.75       99.85    
        100.0    
  51    98.66       98.66       98.66       98.66       98.65       98.65       98.64       98.63       98.62       98.61    
        98.60       98.59       98.58       98.57       98.56       98.55       98.54       98.53       98.52       98.52    
        98.51       98.51       98.50       98.50       98.50       98.50       98.51       98.51       98.52       98.53    
        98.54       98.55       98.56       98.58       98.59       98.61       98.62       98.64       98.66       98.67    
        98.69       98.71       98.72       98.74       98.75       98.77       98.78       98.79       98.80       98.81    
        98.82       98.83       98.83       98.84       98.84       98.85       98.85       98.85       98.85       98.86    
        98.86       98.86       98.86       98.86       98.86       98.86       98.86       98.87       98.87       98.88    
        98.88       98.89       98.90       98.91       98.93       98.94       98.96       98.98       99.00       99.03    
        99.05       99.08       99.11       99.14       99.17       99.20       99.23       99.27       99.30       99.34    
        99.38       99.42       99.46       99.50       99.54       99.58       99.63       99.69       99.76       99.86    
        100.0    
  52    98.72       98.72       98.71       98.71       98.71       98.70       98.70       98.69       98.68       98.67    
        98.66       98.66       98.65       98.64       98.63       98.62       98.61       98.60       98.60       98.59    
        98.59       98.58       98.58       98.58       98.58       98.58       98.58       98.59       98.60       98.60    
        98.61       98.62       98.64       98.65       98.66       98.68       98.69       98.71       98.72       98.74    
        98.75       98.77       98.78       98.80       98.81       98.82       98.83       98.85       98.86       98.87    
        98.87       98.88       98.89       98.89       98.90       98.90       98.91       98.91       98.91       98.91    
        98.92       98.92       98.92       98.92       98.92       98.93       98.93       98.93       98.94       98.94    
        98.95       98.96       98.97       98.98       99.00       99.01       99.03       99.05       99.07       99.09    
        99.12       99.14       99.17       99.20       99.23       99.26       99.29       99.32       99.35       99.39    
        99.42       99.46       99.49       99.53       99.57       99.61       99.66       99.71       99.78       99.87    
        100.0    
  53    98.77       98.77       98.77       98.77       98.76       98.76       98.75       98.75       98.74       98.73    
        98.72       98.72       98.71       98.70       98.69       98.69       98.68       98.67       98.67       98.66    
        98.66       98.65       98.65       98.65       98.65       98.65       98.66       98.66       98.67       98.68    
        98.68       98.69       98.71       98.72       98.73       98.74       98.76       98.77       98.78       98.80    
        98.81       98.83       98.84       98.85       98.86       98.88       98.89       98.90       98.91       98.92    
        98.93       98.93       98.94       98.95       98.95       98.96       98.96       98.96       98.97       98.97    
        98.97       98.98       98.98       98.98       98.98       98.99       98.99       99.00       99.00       99.01    
[...]
        99.59       99.59       99.60       99.60       99.61       99.61       99.62       99.63       99.63       99.64    
        99.65       99.65       99.66       99.67       99.67       99.68       99.69       99.70       99.70       99.71    
        99.72       99.73       99.73       99.74       99.75       99.75       99.76       99.76       99.76       99.77    
        99.77    
  89    99.41       99.41       99.41       99.41       99.41       99.41       99.41       99.41       99.41       99.41    
        99.41       99.41       99.41       99.41       99.41       99.41       99.41       99.41       99.41       99.42    
        99.42       99.42       99.42       99.42       99.42       99.42       99.42       99.43       99.43       99.43    
        99.43       99.43       99.43       99.44       99.44       99.44       99.44       99.45       99.45       99.45    
        99.45       99.46       99.46       99.46       99.47       99.47       99.47       99.48       99.48       99.48    
        99.48       99.49       99.49       99.50       99.50       99.50       99.51       99.51       99.51       99.52    
        99.52       99.53       99.53       99.54       99.54       99.54       99.55       99.55       99.56       99.56    
        99.57       99.57       99.58       99.59       99.59       99.60       99.60       99.61       99.62       99.62    
        99.63       99.64       99.64       99.65       99.66       99.66       99.67       99.68       99.69       99.69    
        99.70       99.71       99.72       99.72       99.73       99.73       99.74       99.74       99.75       99.75    
        99.75    
  90    99.40       99.40       99.40       99.40       99.40       99.40       99.40       99.40       99.40       99.40    
        99.40       99.40       99.40       99.40       99.40       99.40       99.40       99.40       99.40       99.40    
        99.40       99.41       99.41       99.41       99.41       99.41       99.41       99.41       99.41       99.42    
        99.42       99.42       99.42       99.42       99.43       99.43       99.43       99.43       99.44       99.44    
        99.44       99.44       99.45       99.45       99.45       99.45       99.46       99.46       99.46       99.47    
        99.47       99.47       99.48       99.48       99.48       99.49       99.49       99.49       99.50       99.50    
        99.51       99.51       99.51       99.52       99.52       99.53       99.53       99.54       99.54       99.55    
        99.55       99.56       99.56       99.57       99.57       99.58       99.58       99.59       99.60       99.60    
        99.61       99.62       99.62       99.63       99.64       99.64       99.65       99.66       99.67       99.67    
        99.68       99.69       99.70       99.70       99.71       99.72       99.72       99.73       99.73       99.73    
        99.73    
  91    99.38       99.38       99.38       99.38       99.38       99.38       99.38       99.38       99.38       99.38    
        99.39       99.39       99.39       99.39       99.39       99.39       99.39       99.39       99.39       99.39    
        99.39       99.39       99.39       99.39       99.39       99.40       99.40       99.40       99.40       99.40    
        99.40       99.41       99.41       99.41       99.41       99.41       99.42       99.42       99.42       99.42    
        99.43       99.43       99.43       99.43       99.44       99.44       99.44       99.44       99.45       99.45    
        99.45       99.46       99.46       99.46       99.47       99.47       99.47       99.48       99.48       99.49    
        99.49       99.49       99.50       99.50       99.51       99.51       99.51       99.52       99.52       99.53    
        99.53       99.54       99.54       99.55       99.55       99.56       99.57       99.57       99.58       99.58    
        99.59       99.60       99.60       99.61       99.62       99.62       99.63       99.64       99.65       99.66    
        99.66       99.67       99.68       99.69       99.69       99.70       99.71       99.71       99.71       99.72    
        99.72    
  92    99.37       99.37       99.37       99.37       99.37       99.37       99.37       99.37       99.37       99.37    
        99.37       99.37       99.37       99.37       99.37       99.37       99.37       99.37       99.37       99.38    
        99.38       99.38       99.38       99.38       99.38       99.38       99.38       99.38       99.39       99.39    
        99.39       99.39       99.39       99.39       99.40       99.40       99.40       99.40       99.40       99.41    
        99.41       99.41       99.41       99.42       99.42       99.42       99.43       99.43       99.43       99.43    
        99.44       99.44       99.44       99.45       99.45       99.45       99.46       99.46       99.46       99.47    
        99.47       99.47       99.48       99.48       99.49       99.49       99.50       99.50       99.50       99.51    
        99.51       99.52       99.52       99.53       99.53       99.54       99.55       99.55       99.56       99.56    
        99.57       99.58       99.58       99.59       99.60       99.60       99.61       99.62       99.63       99.64    
        99.64       99.65       99.66       99.67       99.67       99.68       99.69       99.69       99.70       99.70    
        99.70    
  93    99.36       99.36       99.36       99.36       99.36       99.36       99.36       99.36       99.36       99.36    
        99.36       99.36       99.36       99.36       99.36       99.36       99.36       99.36       99.36       99.36    
        99.36       99.36       99.36       99.36       99.36       99.37       99.37       99.37       99.37       99.37    
        99.37       99.37       99.38       99.38       99.38       99.38       99.38       99.39       99.39       99.39    
        99.39       99.40       99.40       99.40       99.40       99.41       99.41       99.41       99.41       99.42    
        99.42       99.42       99.43       99.43       99.43       99.44       99.44       99.44       99.45       99.45    
        99.45       99.46       99.46       99.46       99.47       99.47       99.48       99.48       99.48       99.49    
        99.49       99.50       99.50       99.51       99.51       99.52       99.53       99.53       99.54       99.54    
        99.55       99.56       99.56       99.57       99.58       99.58       99.59       99.60       99.61       99.61    
        99.62       99.63       99.64       99.65       99.65       99.66       99.67       99.67       99.68       99.68    
        99.68    
  94    99.34       99.34       99.34       99.34       99.34       99.34       99.34       99.34       99.34       99.34    
        99.34       99.34       99.34       99.34       99.34       99.34       99.34       99.34       99.34       99.35    
        99.35       99.35       99.35       99.35       99.35       99.35       99.35       99.35       99.35       99.36    
        99.36       99.36       99.36       99.36       99.36       99.37       99.37       99.37       99.37       99.37    
        99.38       99.38       99.38       99.38       99.39       99.39       99.39       99.39       99.40       99.40    
        99.40       99.41       99.41       99.41       99.41       99.42       99.42       99.42       99.43       99.43    
        99.43       99.44       99.44       99.45       99.45       99.45       99.46       99.46       99.47       99.47    
        99.47       99.48       99.48       99.49       99.49       99.50       99.50       99.51       99.52       99.52    
        99.53       99.53       99.54       99.55       99.56       99.56       99.57       99.58       99.59       99.59    
        99.60       99.61       99.62       99.63       99.64       99.64       99.65       99.65       99.66       99.66    
        99.66    
  95    99.33       99.33       99.33       99.33       99.33       99.33       99.33       99.33       99.33       99.33    
        99.33       99.33       99.33       99.33       99.33       99.33       99.33       99.33       99.33       99.33    
        99.33       99.33       99.33       99.33       99.33       99.34       99.34       99.34       99.34       99.34    
        99.34       99.34       99.35       99.35       99.35       99.35       99.35       99.35       99.36       99.36    
        99.36       99.36       99.37       99.37       99.37       99.37       99.38       99.38       99.38       99.38    
        99.39       99.39       99.39       99.39       99.40       99.40       99.40       99.41       99.41       99.41    
        99.42       99.42       99.42       99.43       99.43       99.43       99.44       99.44       99.45       99.45    
        99.46       99.46       99.46       99.47       99.47       99.48       99.49       99.49       99.50       99.50    
        99.51       99.51       99.52       99.53       99.54       99.54       99.55       99.56       99.57       99.57    
        99.58       99.59       99.60       99.61       99.62       99.62       99.63       99.64       99.64       99.64    
        99.65    
  96    99.31       99.31       99.31       99.31       99.31       99.31       99.31       99.31       99.31       99.31    
        99.31       99.31       99.31       99.31       99.31       99.31       99.31       99.31       99.32       99.32    
        99.32       99.32       99.32       99.32       99.32       99.32       99.32       99.32       99.33       99.33    
        99.33       99.33       99.33       99.33       99.33       99.34       99.34       99.34       99.34       99.34    
        99.35       99.35       99.35       99.35       99.35       99.36       99.36       99.36       99.36       99.37    
        99.37       99.37       99.38       99.38       99.38       99.38       99.39       99.39       99.39       99.40    
        99.40       99.40       99.41       99.41       99.41       99.42       99.42       99.43       99.43       99.43    
        99.44       99.44       99.45       99.45       99.46       99.46       99.47       99.47       99.48       99.48    
        99.49       99.50       99.50       99.51       99.52       99.52       99.53       99.54       99.55       99.56    
        99.56       99.57       99.58       99.59       99.60       99.61       99.61       99.62       99.62       99.63    
        99.63    
  97    99.30       99.30       99.30       99.30       99.30       99.30       99.30       99.30       99.30       99.30    
        99.30       99.30       99.30       99.30       99.30       99.30       99.30       99.30       99.30       99.30    
        99.30       99.30       99.31       99.31       99.31       99.31       99.31       99.31       99.31       99.31    
        99.31       99.32       99.32       99.32       99.32       99.32       99.32       99.33       99.33       99.33    
        99.33       99.33       99.34       99.34       99.34       99.34       99.35       99.35       99.35       99.35    
        99.36       99.36       99.36       99.36       99.37       99.37       99.37       99.37       99.38       99.38    
        99.38       99.39       99.39       99.39       99.40       99.40       99.41       99.41       99.41       99.42    
        99.42       99.43       99.43       99.44       99.44       99.44       99.45       99.46       99.46       99.47    
        99.47       99.48       99.49       99.49       99.50       99.51       99.51       99.52       99.53       99.54    
        99.55       99.56       99.56       99.57       99.58       99.59       99.60       99.60       99.61       99.61    
        99.61    
  98    99.29       99.29       99.29       99.29       99.29       99.29       99.29       99.29       99.29       99.29    
        99.29       99.29       99.29       99.29       99.29       99.29       99.29       99.29       99.29       99.29    
        99.29       99.29       99.29       99.30       99.30       99.30       99.30       99.30       99.30       99.30    
        99.30       99.30       99.31       99.31       99.31       99.31       99.31       99.31       99.32       99.32    
        99.32       99.32       99.32       99.33       99.33       99.33       99.33       99.34       99.34       99.34    
        99.34       99.35       99.35       99.35       99.35       99.36       99.36       99.36       99.37       99.37    
        99.37       99.37       99.38       99.38       99.38       99.39       99.39       99.40       99.40       99.40    
        99.41       99.41       99.42       99.42       99.43       99.43       99.44       99.44       99.45       99.45    
        99.46       99.46       99.47       99.48       99.48       99.49       99.50       99.51       99.52       99.52    
        99.53       99.54       99.55       99.56       99.57       99.58       99.58       99.59       99.60       99.60    
        99.60    
  99    99.28       99.28       99.28       99.28       99.28       99.28       99.28       99.28       99.28       99.28    
        99.28       99.28       99.28       99.28       99.28       99.28       99.28       99.28       99.28       99.28    
        99.28       99.28       99.29       99.29       99.29       99.29       99.29       99.29       99.29       99.29    
        99.29       99.30       99.30       99.30       99.30       99.30       99.30       99.31       99.31       99.31    
        99.31       99.31       99.31       99.32       99.32       99.32       99.32       99.33       99.33       99.33    
        99.33       99.34       99.34       99.34       99.34       99.35       99.35       99.35       99.35       99.36    
        99.36       99.36       99.37       99.37       99.37       99.38       99.38       99.38       99.39       99.39    
        99.40       99.40       99.41       99.41       99.41       99.42       99.42       99.43       99.43       99.44    
        99.45       99.45       99.46       99.47       99.47       99.48       99.49       99.50       99.50       99.51    
        99.52       99.53       99.54       99.55       99.56       99.57       99.57       99.58       99.59       99.59    
        99.59    
 100    99.28       99.28       99.28       99.28       99.28       99.27       99.27       99.27       99.27       99.27    
        99.27       99.27       99.27       99.27       99.27       99.28       99.28       99.28       99.28       99.28    
        99.28       99.28       99.28       99.28       99.28       99.28       99.28       99.28       99.29       99.29    
        99.29       99.29       99.29       99.29       99.29       99.30       99.30       99.30       99.30       99.30    
        99.30       99.31       99.31       99.31       99.31       99.31       99.32       99.32       99.32       99.32    
        99.33       99.33       99.33       99.33       99.34       99.34       99.34       99.34       99.35       99.35    
        99.35       99.36       99.36       99.36       99.37       99.37       99.37       99.38       99.38       99.39    
        99.39       99.39       99.40       99.40       99.41       99.41       99.42       99.42       99.43       99.43    
        99.44       99.44       99.45       99.46       99.46       99.47       99.48       99.49       99.50       99.50    
        99.51       99.52       99.53       99.54       99.55       99.56       99.57       99.57       99.58       99.58    
        99.58    
 101    99.27       99.27       99.27       99.27       99.27       99.27       99.27       99.27       99.27       99.27    
        99.27       99.27       99.27       99.27       99.27       99.27       99.27       99.27       99.27       99.27    
        99.27       99.28       99.28       99.28       99.28       99.28       99.28       99.28       99.28       99.28    
        99.28       99.29       99.29       99.29       99.29       99.29       99.29       99.30       99.30       99.30    
        99.30       99.30       99.30       99.31       99.31       99.31       99.31       99.32       99.32       99.32    
        99.32       99.32       99.33       99.33       99.33       99.34       99.34       99.34       99.34       99.35    
        99.35       99.35       99.36       99.36       99.36       99.37       99.37       99.37       99.38       99.38    
        99.39       99.39       99.39       99.40       99.40       99.41       99.41       99.42       99.42       99.43    
        99.43       99.44       99.45       99.45       99.46       99.47       99.47       99.48       99.49       99.50    
        99.51       99.52       99.53       99.54       99.54       99.55       99.56       99.57       99.57       99.58    
        99.58    

 HEAD WILL BE SAVED ON UNIT 1017 AT END OF TIME STEP    1, STRESS PERIOD    1


  VOLUME BUDGET FOR ENTIRE MODEL AT END OF TIME STEP    1, STRESS PERIOD   1
  ---------------------------------------------------------------------------------------------------

     CUMULATIVE VOLUME      L**3       RATES FOR THIS TIME STEP      L**3/T          PACKAGE NAME    
     ------------------                 ------------------------                     ----------------

           IN:                                      IN:
           ---                                      ---
              STO-SS =         114.5690                STO-SS =         114.5690     STORAGE                          
              STO-SY =           0.0000                STO-SY =           0.0000     STORAGE                          
                 WEL =           0.0000                   WEL =           0.0000     WEL_0                            
                RCHA =        1521.1294                  RCHA =        1521.1294     RCH                              
                EVTA =           0.0000                  EVTA =           0.0000     EVTA_0                           
                 CHD =         802.0287                   CHD =         802.0287     CHD_0                            

            TOTAL IN =        2437.7271              TOTAL IN =        2437.7271

          OUT:                                     OUT:
          ----                                     ----
              STO-SS =           0.0000                STO-SS =           0.0000     STORAGE                          
              STO-SY =           0.0000                STO-SY =           0.0000     STORAGE                          
                 WEL =        2073.6923                   WEL =        2073.6923     WEL_0                            
                RCHA =           0.0000                  RCHA =           0.0000     RCH                              
                EVTA =          22.3569                  EVTA =          22.3569     EVTA_0                           
                 CHD =         348.1442                   CHD =         348.1442     CHD_0                            

           TOTAL OUT =        2444.1934             TOTAL OUT =        2444.1934

            IN - OUT =          -6.4663              IN - OUT =          -6.4663

 PERCENT DISCREPANCY =          -0.26     PERCENT DISCREPANCY =          -0.26




         TIME SUMMARY AT END OF TIME STEP    1 IN STRESS PERIOD    1
                    SECONDS     MINUTES      HOURS       DAYS        YEARS
                    -----------------------------------------------------------
   TIME STEP LENGTH  86400.      1440.0      24.000      1.0000     2.73785E-03
 STRESS PERIOD TIME  86400.      1440.0      24.000      1.0000     2.73785E-03
         TOTAL TIME  86400.      1440.0      24.000      1.0000     2.73785E-03


end timestep

