                                   MODFLOW 6
                U.S. GEOLOGICAL SURVEY MODULAR HYDROLOGIC MODEL
                          GROUNDWATER FLOW MODEL (GWF)
                        VERSION 6.4.1 Release 12/09/2022

   MODFLOW 6 compiled Dec 09 2022 18:18:37 with Intel(R) Fortran Intel(R) 64
   Compiler Classic for applications running on Intel(R) 64, Version 2021.7.0
                             Build 20220726_000000

This software has been approved for release by the U.S. Geological 
Survey (USGS). Although the software has been subjected to rigorous 
review, the USGS reserves the right to update the software as needed 
pursuant to further analysis and review. No warranty, expressed or 
implied, is made by the USGS or the U.S. Government as to the 
functionality of the software and related material nor shall the 
fact of release constitute any such warranty. Furthermore, the 
software is released on condition that neither the USGS nor the U.S. 
Government shall be held liable for any damages resulting from its 
authorized or unauthorized use. Also refer to the USGS Water 
Resources Software User Rights Notice for complete use, copyright, 
and distribution information.


As a work of the United States Government, this USGS product is 
in the public domain within the United States. You can copy, 
modify, distribute, and perform the work, even for commercial 
purposes, all without asking permission. Additionally, USGS 
waives copyright and related rights in the work worldwide 
through CC0 1.0 Universal Public Domain Dedication 
(https://creativecommons.org/publicdomain/zero/1.0/).

The following GNU Lesser General Public License (LGPL) libraries
are used in this USGS product:

    SPARSKIT version 2.0
      ilut, luson, and qsplit 
      (https://www-users.cse.umn.edu/~saad/software/SPARSKIT/)

    RCM - Reverse Cuthill McKee Ordering
      (https://people.math.sc.edu/Burkardt/f_src/rcm/rcm.html)

    BLAS - Basic Linear Algebra Subprograms Level 1
      (https://people.math.sc.edu/Burkardt/f_src/blas1_d/blas1_d.html)

    SPARSEKIT - Sparse Matrix Utility Package
      amux, dperm, dvperm, rperm, and cperm
      (https://people.sc.fsu.edu/~jburkardt/f77_src/sparsekit/sparsekit.html)

The following BSD-3 License libraries are used in this USGS product:

    Modern Fortran DAG Library
      Copyright (c) 2018, Jacob Williams
      All rights reserved.
      (https://github.com/jacobwilliams/daglib)

MODFLOW 6 compiler options: /Isrc\libmf6core.a.p /Isrc /I..\src
/Isrc\libmf6_external.a.p /MTd /nologo /warn:general /warn:truncated_source
/stand:f08 /Zi /traceback /O2 /fpe:0 /heap-arrays:0 /traceback /fpp
/Qdiag-disable:7416 /Qdiag-disable:7025 /Qdiag-disable:5268
/Fdsrc\libmf6core.a.p\Utilities_compilerversion.F90.pdb
/module:src\libmf6core.a.p
/Fosrc/libmf6core.a.p/Utilities_compilerversion.F90.obj /c

System command used to initiate simulation:
"C:\Users\ksil8584\OneDrive - The University of Sydney (Staff)\Documents\Modflow\mf6.4.1\bin\mf6.exe"

MODFLOW was compiled using uniform precision.

Real Variables
  KIND: 8
  TINY (smallest non-zero value):    2.225074-308
  HUGE (largest value):    1.797693+308
  PRECISION: 15
  SIZE IN BITS: 64

Integer Variables
  KIND: 4
  HUGE (largest value): 2147483647
  SIZE IN BITS: 32

Long Integer Variables
  KIND: 8
  HUGE (largest value): 9223372036854775807
  SIZE IN BITS: 64

Logical Variables
  KIND: 4
  SIZE IN BITS: 32
 

 OPENED FloPy_Test1.dis
 FILE TYPE:DIS6                   UNIT 1005   STATUS:OLD                 
 FORMAT:FORMATTED              ACCESS:SEQUENTIAL          
 ACTION:READ                


 OPENED FloPy_Test1.ic
 FILE TYPE:IC6                    UNIT 1006   STATUS:OLD                 
 FORMAT:FORMATTED              ACCESS:SEQUENTIAL          
 ACTION:READ                


 OPENED FloPy_Test1.npf
 FILE TYPE:NPF6                   UNIT 1007   STATUS:OLD                 
 FORMAT:FORMATTED              ACCESS:SEQUENTIAL          
 ACTION:READ                


 OPENED FloPy_Test1.sto
 FILE TYPE:STO6                   UNIT 1008   STATUS:OLD                 
 FORMAT:FORMATTED              ACCESS:SEQUENTIAL          
 ACTION:READ                


 OPENED FloPy_Test1.chd
 FILE TYPE:CHD6                   UNIT 1009   STATUS:OLD                 
 FORMAT:FORMATTED              ACCESS:SEQUENTIAL          
 ACTION:READ                


 OPENED FloPy_Test1.wel
 FILE TYPE:WEL6                   UNIT 1010   STATUS:OLD                 
 FORMAT:FORMATTED              ACCESS:SEQUENTIAL          
 ACTION:READ                


 OPENED FloPy_Test1.rcha
 FILE TYPE:RCH6                   UNIT 1011   STATUS:OLD                 
 FORMAT:FORMATTED              ACCESS:SEQUENTIAL          
 ACTION:READ                


 OPENED FloPy_Test1.oc
 FILE TYPE:OC6                    UNIT 1012   STATUS:OLD                 
 FORMAT:FORMATTED              ACCESS:SEQUENTIAL          
 ACTION:READ                

 NAMEFILE OPTIONS:
    FLOWS WILL BE SAVED TO BUDGET FILE SPECIFIED IN OUTPUT CONTROL
    NEWTON-RAPHSON method enabled for the model.
    NEWTON-RAPHSON UNDER-RELAXATION based on the bottom elevation of the model will be applied to the model.

 DIS -- STRUCTURED GRID DISCRETIZATION PACKAGE, VERSION 2 : 3/27/2014 - INPUT READ FROM UNIT 1005

 Loading input for FLOPY_TEST1/DIS
 # File generated by Flopy version 3.3.6 on 06/26/2023 at 17:35:11.
   NLAY = 10
   NROW = 101
   NCOL = 101
   DELR = 4.000000000000000
   DELC = 4.000000000000000
   TOP = .000000000000000
   BOTM = variable 3D double precision array ranging from -50.00000000000000 to -5.000000000000000
 Loading input complete...


 NPF -- NODE PROPERTY FLOW PACKAGE, VERSION 1, 3/30/2015 INPUT READ FROM UNIT 1007

 Loading input for FLOPY_TEST1/NPF
 # File generated by Flopy version 3.3.6 on 06/26/2023 at 17:35:11.
   ICELLTYPE = 1
   K = 1.000000000000000
 Loading input complete...

 Setting Discretization Options
 End Setting Discretization Options

 Setting Discretization Dimensions
    NLAY = 10
    NROW = 101
    NCOL = 101
 End Setting Discretization Dimensions

 Setting Discretization Griddata
    DELR set from input file
    DELC set from input file
    TOP set from input file
    BOTM set from input file
 End Setting Discretization Griddata

 Setting NPF Options
 End Setting NPF Options

 Setting NPF Griddata
    ICELLTYPE set from input file
    K set from input file
    K33 not provided.  Setting K33 = K.
    K22 not provided.  Setting K22 = K.
 End Setting NPF Griddata


 WEL   -- WEL PACKAGE, VERSION 8, 2/22/2014 INPUT READ FROM UNIT 1010
 # File generated by Flopy version 3.3.6 on 06/26/2023 at 17:35:11.

 PROCESSING WEL OPTIONS
 END OF WEL OPTIONS

 PROCESSING WEL DIMENSIONS
    MAXBOUND =       1
 END OF WEL DIMENSIONS

 RCH   -- RCH PACKAGE, VERSION 8, 2/22/2014 INPUT READ FROM UNIT 1011
 # File generated by Flopy version 3.3.6 on 06/26/2023 at 17:35:11.

 PROCESSING RCH OPTIONS
    RECHARGE INPUT WILL BE READ AS ARRAY(S).
 END OF RCHA OPTIONS

 CHD   -- CHD PACKAGE, VERSION 8, 2/22/2014 INPUT READ FROM UNIT 1009
 # File generated by Flopy version 3.3.6 on 06/26/2023 at 17:35:11.

 PROCESSING CHD OPTIONS
 END OF CHD OPTIONS

 PROCESSING CHD DIMENSIONS
    MAXBOUND =     400
 END OF CHD DIMENSIONS

 IC -- INITIAL CONDITIONS PACKAGE, VERSION 8, 3/28/2015 INPUT READ FROM UNIT 1006
 # File generated by Flopy version 3.3.6 on 06/26/2023 at 17:35:11.
 PROCESSING GRIDDATA
 END PROCESSING GRIDDATA

 STO -- STORAGE PACKAGE, VERSION 1, 5/19/2014 INPUT READ FROM UNIT 1008


 # File generated by Flopy version 3.3.6 on 06/26/2023 at 17:35:11.
 PROCESSING STORAGE OPTIONS
 END OF STORAGE OPTIONS
 PROCESSING GRIDDATA

                 ICONVERT = 1

         SPECIFIC STORAGE =  0.1000000E-04

           SPECIFIC YIELD =  0.1500000    
 END PROCESSING GRIDDATA
    BINARY GRID INFORMATION WILL BE WRITTEN TO:
      UNIT NUMBER: 1014
      FILE NAME: C:\Users\ksil8584\OneDrive - The University of Sydney (Staff)\Documents\Modflow\FloPy models\FloPy_T1b\FloPy_Test1.dis.grb

 OPENED C:\Users\ksil8584\OneDrive - The University of Sydney (Staff)\Documents\Modflow\FloPy models\FloPy_T1b\FloPy_Test1.dis.grb
 FILE TYPE:DATA(BINARY)   UNIT 1014   STATUS:REPLACE             
 FORMAT:UNFORMATTED            ACCESS:STREAM              
 ACTION:READWRITE           

      THE LAST TIME STEP WILL BE PRINTED
      THE LAST TIME STEP WILL BE PRINTED
 # File generated by Flopy version 3.3.6 on 06/26/2023 at 17:35:11.

 PROCESSING OC OPTIONS

    BUDGET INFORMATION WILL BE WRITTEN TO:
      UNIT NUMBER: 1015
      FILE NAME: FloPy_Test1.cbb

 OPENED FloPy_Test1.cbb
 FILE TYPE:DATA(BINARY)   UNIT 1015   STATUS:REPLACE             
 FORMAT:UNFORMATTED            ACCESS:STREAM              
 ACTION:READWRITE           

    HEAD INFORMATION WILL BE WRITTEN TO:
      UNIT NUMBER: 1016
      FILE NAME: FloPy_Test1.hds

 OPENED FloPy_Test1.hds
 FILE TYPE:DATA(BINARY)   UNIT 1016   STATUS:REPLACE             
 FORMAT:UNFORMATTED            ACCESS:STREAM              
 ACTION:READWRITE           

 END OF OC OPTIONS

start timestep kper="1" kstp="1" mode="normal"


 BEGIN READING OUTPUT CONTROL FOR STRESS PERIOD 1
      ALL TIME STEPS WILL BE SAVED
      ALL TIME STEPS WILL BE SAVED
      THE LAST TIME STEP WILL BE PRINTED

 END READING OUTPUT CONTROL FOR STRESS PERIOD 1


 STRESS PERIOD 1 IS TRANSIENT


                 RECHARGE =   0.000000    
 UBDSV1 SAVING           STO-SS ON UNIT   1015 AT TIME STEP      1, STRESS PERIOD      1
 UBDSV1 SAVING           STO-SY ON UNIT   1015 AT TIME STEP      1, STRESS PERIOD      1
 UBDSV1 SAVING     FLOW-JA-FACE ON UNIT   1015 AT TIME STEP      1, STRESS PERIOD      1
 UBDSV06 SAVING              WEL IN MODEL FLOPY_TEST1      PACKAGE FLOPY_TEST1     CONNECTED TO MODEL FLOPY_TEST1      PACKAGE WEL_0            ON UNIT   1015 AT TIME STEP      1, STRESS PERIOD      1
 UBDSV06 SAVING             RCHA IN MODEL FLOPY_TEST1      PACKAGE FLOPY_TEST1     CONNECTED TO MODEL FLOPY_TEST1      PACKAGE RCH              ON UNIT   1015 AT TIME STEP      1, STRESS PERIOD      1
 UBDSV06 SAVING              CHD IN MODEL FLOPY_TEST1      PACKAGE FLOPY_TEST1     CONNECTED TO MODEL FLOPY_TEST1      PACKAGE CHD_0            ON UNIT   1015 AT TIME STEP      1, STRESS PERIOD      1
1
  HEAD IN LAYER   1 AT END OF TIME STEP   1 IN STRESS PERIOD    1
  ---------------------------------------------------------------------------

            1           2           3           4           5           6           7           8           9          10
           11          12          13          14          15          16          17          18          19          20
           21          22          23          24          25          26          27          28          29          30
           31          32          33          34          35          36          37          38          39          40
           41          42          43          44          45          46          47          48          49          50
           51          52          53          54          55          56          57          58          59          60
           61          62          63          64          65          66          67          68          69          70
           71          72          73          74          75          76          77          78          79          80
           81          82          83          84          85          86          87          88          89          90
           91          92          93          94          95          96          97          98          99         100
          101
 ........................................................................................................................
   1    100.0       100.0       100.0       100.0       100.0       100.0       100.0       100.0       100.0       100.0    
        100.0       100.0       100.0       100.0       100.0       100.0       100.0       100.0       100.0       100.0    
        100.0       100.0       100.0       100.0       100.0       100.0       100.0       100.0       100.0       100.0    
        100.0       100.0       100.0       100.0       100.0       100.0       100.0       100.0       100.0       100.0    
        100.0       100.0       100.0       100.0       100.0       100.0       100.0       100.0       100.0       100.0    
        100.0       100.0       100.0       100.0       100.0       100.0       100.0       100.0       100.0       100.0    
        100.0       100.0       100.0       100.0       100.0       100.0       100.0       100.0       100.0       100.0    
        100.0       100.0       100.0       100.0       100.0       100.0       100.0       100.0       100.0       100.0    
        100.0       100.0       100.0       100.0       100.0       100.0       100.0       100.0       100.0       100.0    
        100.0       100.0       100.0       100.0       100.0       100.0       100.0       100.0       100.0       100.0    
        100.0    
   2    100.0       99.82       99.72       99.66       99.61       99.58       99.54       99.52       99.49       99.46    
        99.44       99.42       99.39       99.37       99.35       99.33       99.32       99.30       99.28       99.27    
        99.26       99.25       99.24       99.23       99.23       99.22       99.22       99.22       99.23       99.23    
        99.24       99.25       99.25       99.27       99.28       99.29       99.31       99.32       99.34       99.35    
        99.37       99.39       99.41       99.42       99.44       99.46       99.48       99.49       99.51       99.53    
        99.54       99.56       99.57       99.59       99.60       99.62       99.63       99.64       99.66       99.67    
        99.68       99.69       99.71       99.72       99.73       99.74       99.75       99.76       99.77       99.78    
        99.78       99.79       99.80       99.81       99.82       99.82       99.83       99.84       99.84       99.85    
        99.86       99.86       99.87       99.87       99.88       99.88       99.89       99.89       99.90       99.90    
        99.91       99.91       99.92       99.92       99.93       99.93       99.94       99.95       99.96       99.97    
        100.0    
   3    100.0       99.72       99.56       99.45       99.37       99.31       99.25       99.20       99.16       99.12    
        99.08       99.04       99.00       98.96       98.93       98.90       98.87       98.84       98.81       98.79    
        98.77       98.75       98.74       98.73       98.72       98.71       98.71       98.71       98.72       98.72    
        98.74       98.75       98.77       98.78       98.81       98.83       98.85       98.88       98.91       98.93    
        98.96       98.99       99.02       99.05       99.08       99.11       99.13       99.16       99.19       99.22    
        99.24       99.27       99.30       99.32       99.35       99.37       99.39       99.41       99.44       99.46    
        99.48       99.50       99.51       99.53       99.55       99.57       99.58       99.60       99.61       99.63    
        99.64       99.66       99.67       99.68       99.70       99.71       99.72       99.73       99.74       99.75    
        99.76       99.77       99.78       99.79       99.80       99.81       99.82       99.83       99.83       99.84    
        99.85       99.86       99.87       99.87       99.88       99.89       99.90       99.91       99.93       99.96    
        100.0    
   4    100.0       99.66       99.45       99.31       99.20       99.12       99.05       98.98       98.92       98.86    
        98.81       98.76       98.71       98.66       98.62       98.58       98.54       98.50       98.47       98.44    
        98.41       98.39       98.37       98.35       98.34       98.33       98.33       98.33       98.34       98.35    
        98.37       98.38       98.41       98.43       98.46       98.49       98.52       98.55       98.59       98.62    
        98.66       98.70       98.74       98.77       98.81       98.85       98.89       98.92       98.96       98.99    
        99.03       99.06       99.10       99.13       99.16       99.19       99.22       99.25       99.27       99.30    
        99.33       99.35       99.38       99.40       99.42       99.44       99.47       99.49       99.51       99.52    
        99.54       99.56       99.58       99.59       99.61       99.63       99.64       99.65       99.67       99.68    
        99.70       99.71       99.72       99.73       99.74       99.75       99.77       99.78       99.79       99.80    
        99.81       99.82       99.83       99.84       99.85       99.86       99.88       99.89       99.91       99.95    
        100.0    
   5    100.0       99.61       99.37       99.20       99.08       98.97       98.89       98.81       98.73       98.67    
        98.60       98.54       98.48       98.43       98.37       98.32       98.27       98.23       98.19       98.15    
        98.12       98.09       98.07       98.05       98.03       98.03       98.02       98.03       98.04       98.05    
        98.07       98.09       98.11       98.14       98.18       98.21       98.25       98.29       98.33       98.38    
        98.42       98.47       98.51       98.56       98.60       98.65       98.69       98.73       98.78       98.82    
        98.86       98.90       98.94       98.98       99.01       99.05       99.08       99.12       99.15       99.18    
        99.21       99.24       99.27       99.30       99.32       99.35       99.37       99.40       99.42       99.44    
        99.46       99.48       99.50       99.52       99.54       99.56       99.58       99.60       99.61       99.63    
        99.64       99.66       99.67       99.69       99.70       99.71       99.73       99.74       99.75       99.76    
        99.77       99.79       99.80       99.81       99.82       99.84       99.86       99.88       99.90       99.94    
        100.0    
   6    100.0       99.58       99.31       99.12       98.97       98.86       98.75       98.66       98.58       98.50    
        98.43       98.36       98.29       98.22       98.16       98.10       98.05       98.00       97.95       97.90    
        97.87       97.83       97.81       97.79       97.77       97.76       97.76       97.76       97.77       97.79    
        97.81       97.83       97.86       97.90       97.94       97.98       98.02       98.07       98.12       98.17    
        98.22       98.27       98.32       98.37       98.43       98.48       98.53       98.58       98.62       98.67    
        98.72       98.76       98.81       98.85       98.89       98.93       98.97       99.01       99.04       99.08    
        99.11       99.15       99.18       99.21       99.24       99.27       99.30       99.32       99.35       99.37    
        99.40       99.42       99.44       99.47       99.49       99.51       99.53       99.55       99.56       99.58    
        99.60       99.62       99.63       99.65       99.66       99.68       99.69       99.71       99.72       99.73    
        99.75       99.76       99.78       99.79       99.80       99.82       99.84       99.86       99.89       99.93    
        100.0    
   7    100.0       99.54       99.25       99.05       98.89       98.75       98.64       98.54       98.44       98.35    
        98.27       98.19       98.12       98.04       97.97       97.91       97.84       97.79       97.73       97.68    
        97.64       97.60       97.57       97.55       97.53       97.52       97.52       97.52       97.53       97.55    
        97.57       97.60       97.64       97.68       97.72       97.77       97.82       97.87       97.93       97.98    
        98.04       98.10       98.16       98.21       98.27       98.33       98.38       98.44       98.49       98.54    
        98.60       98.65       98.69       98.74       98.79       98.83       98.87       98.92       98.96       98.99    
        99.03       99.07       99.10       99.14       99.17       99.20       99.23       99.26       99.29       99.32    
        99.34       99.37       99.39       99.42       99.44       99.46       99.48       99.50       99.52       99.54    
        99.56       99.58       99.60       99.62       99.63       99.65       99.66       99.68       99.69       99.71    
        99.72       99.74       99.76       99.77       99.79       99.81       99.83       99.85       99.88       99.93    
        100.0    
   8    100.0       99.52       99.20       98.98       98.81       98.66       98.54       98.42       98.32       98.22    
        98.13       98.04       97.96       97.88       97.80       97.73       97.66       97.59       97.53       97.47    
        97.43       97.38       97.35       97.32       97.30       97.29       97.29       97.29       97.31       97.33    
        97.36       97.39       97.43       97.47       97.52       97.58       97.63       97.69       97.75       97.82    
        97.88       97.94       98.01       98.07       98.13       98.19       98.26       98.32       98.37       98.43    
        98.49       98.54       98.59       98.64       98.69       98.74       98.79       98.83       98.88       98.92    
        98.96       99.00       99.04       99.07       99.11       99.14       99.17       99.21       99.24       99.27    
        99.29       99.32       99.35       99.37       99.40       99.42       99.44       99.47       99.49       99.51    
        99.53       99.55       99.57       99.59       99.60       99.62       99.64       99.66       99.67       99.69    
        99.71       99.72       99.74       99.76       99.77       99.79       99.82       99.84       99.88       99.93    
        100.0    
   9    100.0       99.49       99.16       98.92       98.73       98.58       98.44       98.32       98.21       98.10    
        98.00       97.90       97.81       97.72       97.64       97.55       97.48       97.40       97.34       97.28    
        97.22       97.17       97.14       97.11       97.08       97.07       97.07       97.08       97.09       97.11    
        97.15       97.18       97.23       97.28       97.34       97.40       97.46       97.52       97.59       97.66    
        97.73       97.80       97.87       97.94       98.01       98.07       98.14       98.20       98.27       98.33    
        98.39       98.45       98.50       98.56       98.61       98.66       98.71       98.76       98.81       98.85    
        98.89       98.93       98.98       99.01       99.05       99.09       99.12       99.16       99.19       99.22    
        99.25       99.28       99.31       99.33       99.36       99.39       99.41       99.43       99.46       99.48    
        99.50       99.52       99.54       99.56       99.58       99.60       99.62       99.63       99.65       99.67    
        99.69       99.70       99.72       99.74       99.76       99.78       99.81       99.84       99.87       99.92    
        100.0    
  10    100.0       99.46       99.12       98.86       98.67       98.50       98.35       98.22       98.10       97.99    
        97.88       97.77       97.67       97.57       97.48       97.39       97.30       97.22       97.15       97.08    
        97.02       96.97       96.93       96.89       96.87       96.86       96.85       96.86       96.88       96.90    
        96.94       96.98       97.03       97.09       97.15       97.22       97.29       97.36       97.44       97.51    
        97.59       97.66       97.74       97.81       97.89       97.96       98.03       98.10       98.17       98.23    
        98.30       98.36       98.42       98.48       98.53       98.59       98.64       98.69       98.74       98.79    
        98.83       98.88       98.92       98.96       99.00       99.04       99.08       99.11       99.14       99.18    
        99.21       99.24       99.27       99.30       99.33       99.35       99.38       99.40       99.43       99.45    
        99.47       99.50       99.52       99.54       99.56       99.58       99.60       99.62       99.63       99.65    
        99.67       99.69       99.71       99.73       99.75       99.77       99.80       99.83       99.87       99.92    
        100.0    
  11    100.0       99.44       99.08       98.81       98.60       98.43       98.27       98.13       98.00       97.88    
        97.76       97.65       97.54       97.43       97.33       97.23       97.14       97.05       96.96       96.89    
        96.82       96.76       96.72       96.68       96.65       96.64       96.64       96.65       96.67       96.70    
        96.74       96.79       96.84       96.91       96.98       97.05       97.13       97.21       97.29       97.37    
        97.45       97.53       97.61       97.70       97.77       97.85       97.93       98.00       98.07       98.14    
        98.21       98.28       98.34       98.40       98.46       98.52       98.58       98.63       98.68       98.73    
        98.78       98.82       98.87       98.91       98.95       98.99       99.03       99.07       99.10       99.14    
        99.17       99.20       99.24       99.27       99.29       99.32       99.35       99.38       99.40       99.43    
        99.45       99.47       99.49       99.52       99.54       99.56       99.58       99.60       99.62       99.64    
        99.66       99.68       99.70       99.72       99.74       99.76       99.79       99.82       99.86       99.92    
        100.0    
  12    100.0       99.42       99.04       98.76       98.54       98.36       98.19       98.04       97.90       97.77    
        97.65       97.52       97.41       97.29       97.18       97.07       96.97       96.87       96.78       96.70    
        96.62       96.56       96.51       96.47       96.44       96.42       96.42       96.43       96.45       96.49    
        96.53       96.59       96.65       96.72       96.80       96.88       96.97       97.05       97.14       97.23    
        97.32       97.41       97.50       97.58       97.67       97.75       97.83       97.91       97.99       98.06    
        98.13       98.20       98.27       98.33       98.40       98.46       98.51       98.57       98.62       98.68    
        98.73       98.77       98.82       98.87       98.91       98.95       98.99       99.03       99.07       99.10    
        99.14       99.17       99.20       99.24       99.27       99.29       99.32       99.35       99.38       99.40    
        99.43       99.45       99.47       99.50       99.52       99.54       99.56       99.58       99.60       99.62    
        99.64       99.66       99.68       99.71       99.73       99.75       99.78       99.81       99.86       99.91    
        100.0    
  13    100.0       99.39       99.00       98.71       98.48       98.29       98.12       97.96       97.81       97.67    
        97.54       97.41       97.28       97.15       97.03       96.92       96.80       96.70       96.60       96.51    
        96.43       96.35       96.30       96.25       96.22       96.20       96.20       96.21       96.24       96.28    
        96.33       96.39       96.46       96.54       96.63       96.72       96.81       96.90       97.00       97.10    
        97.19       97.29       97.38       97.48       97.57       97.65       97.74       97.82       97.90       97.98    
        98.06       98.13       98.20       98.27       98.33       98.40       98.46       98.52       98.57       98.63    
        98.68       98.73       98.78       98.82       98.87       98.91       98.95       98.99       99.03       99.07    
        99.11       99.14       99.17       99.21       99.24       99.27       99.30       99.33       99.35       99.38    
        99.41       99.43       99.45       99.48       99.50       99.52       99.54       99.57       99.59       99.61    
        99.63       99.65       99.67       99.70       99.72       99.74       99.77       99.81       99.85       99.91    
        100.0    
  14    100.0       99.37       98.96       98.66       98.43       98.22       98.04       97.88       97.72       97.57    
        97.43       97.29       97.15       97.02       96.89       96.76       96.64       96.52       96.42       96.32    
        96.22       96.15       96.08       96.03       96.00       95.98       95.98       95.99       96.02       96.07    
        96.13       96.20       96.28       96.36       96.46       96.55       96.66       96.76       96.86       96.97    
        97.07       97.18       97.28       97.37       97.47       97.56       97.65       97.74       97.83       97.91    
        97.99       98.06       98.14       98.21       98.28       98.34       98.40       98.47       98.52       98.58    
        98.63       98.69       98.74       98.78       98.83       98.88       98.92       98.96       99.00       99.04    
        99.08       99.11       99.15       99.18       99.21       99.24       99.27       99.30       99.33       99.36    
        99.39       99.41       99.44       99.46       99.48       99.51       99.53       99.55       99.57       99.60    
        99.62       99.64       99.66       99.69       99.71       99.74       99.77       99.80       99.85       99.91    
        100.0    
  15    100.0       99.35       98.93       98.62       98.37       98.16       97.97       97.80       97.64       97.48    
        97.33       97.18       97.03       96.89       96.75       96.61       96.48       96.35       96.23       96.12    
        96.02       95.94       95.87       95.81       95.77       95.75       95.75       95.77       95.80       95.86    
        95.92       96.00       96.09       96.18       96.29       96.40       96.51       96.62       96.73       96.84    
        96.96       97.07       97.17       97.28       97.38       97.48       97.57       97.66       97.75       97.84    
        97.92       98.00       98.08       98.15       98.22       98.29       98.35       98.42       98.48       98.54    
        98.59       98.65       98.70       98.75       98.80       98.84       98.89       98.93       98.97       99.01    
        99.05       99.09       99.12       99.16       99.19       99.22       99.25       99.28       99.31       99.34    
        99.37       99.39       99.42       99.44       99.47       99.49       99.52       99.54       99.56       99.58    
        99.61       99.63       99.65       99.68       99.70       99.73       99.76       99.80       99.84       99.90    
        100.0    
  16    100.0       99.33       98.90       98.58       98.32       98.10       97.91       97.73       97.55       97.39    
        97.23       97.07       96.92       96.76       96.61       96.46       96.32       96.18       96.05       95.93    
        95.82       95.73       95.65       95.59       95.54       95.52       95.52       95.54       95.58       95.64    
        95.72       95.80       95.90       96.01       96.12       96.24       96.36       96.48       96.60       96.73    
        96.84       96.96       97.07       97.18       97.29       97.40       97.50       97.59       97.68       97.77    
        97.86       97.94       98.02       98.10       98.17       98.24       98.31       98.37       98.44       98.50    
        98.55       98.61       98.66       98.71       98.76       98.81       98.86       98.90       98.94       98.98    
        99.02       99.06       99.10       99.13       99.17       99.20       99.23       99.26       99.29       99.32    
        99.35       99.38       99.40       99.43       99.45       99.48       99.50       99.53       99.55       99.57    
        99.60       99.62       99.64       99.67       99.69       99.72       99.75       99.79       99.84       99.90    
        100.0    
  17    100.0       99.32       98.87       98.54       98.27       98.05       97.84       97.66       97.48       97.30    
        97.14       96.97       96.80       96.64       96.48       96.32       96.17       96.02       95.87       95.74    
        95.62       95.52       95.43       95.36       95.32       95.29       95.30       95.32       95.36       95.43    
        95.51       95.61       95.72       95.84       95.96       96.09       96.22       96.35       96.48       96.61    
        96.74       96.86       96.98       97.10       97.21       97.32       97.42       97.52       97.62       97.71    
        97.80       97.89       97.97       98.05       98.12       98.20       98.26       98.33       98.40       98.46    
        98.52       98.57       98.63       98.68       98.73       98.78       98.83       98.87       98.91       98.96    
        99.00       99.04       99.07       99.11       99.14       99.18       99.21       99.24       99.27       99.30    
        99.33       99.36       99.39       99.41       99.44       99.46       99.49       99.51       99.54       99.56    
        99.59       99.61       99.63       99.66       99.69       99.72       99.75       99.79       99.83       99.90    
        100.0    
  18    100.0       99.30       98.84       98.50       98.23       98.00       97.79       97.59       97.40       97.22    
        97.05       96.87       96.70       96.52       96.35       96.18       96.02       95.85       95.70       95.56    
        95.43       95.31       95.21       95.14       95.09       95.07       95.07       95.10       95.15       95.22    
        95.31       95.42       95.54       95.67       95.80       95.94       96.08       96.23       96.37       96.50    
        96.64       96.77       96.89       97.02       97.13       97.25       97.36       97.46       97.56       97.66    
        97.75       97.84       97.92       98.00       98.08       98.15       98.22       98.29       98.36       98.42    
        98.48       98.54       98.60       98.65       98.70       98.75       98.80       98.85       98.89       98.93    
        98.97       99.01       99.05       99.09       99.13       99.16       99.19       99.23       99.26       99.29    
        99.32       99.35       99.37       99.40       99.43       99.45       99.48       99.50       99.53       99.55    
        99.58       99.60       99.63       99.65       99.68       99.71       99.74       99.78       99.83       99.90    
        100.0    
  19    100.0       99.28       98.81       98.47       98.19       97.95       97.73       97.53       97.34       97.15    
        96.96       96.78       96.60       96.42       96.23       96.05       95.87       95.70       95.53       95.38    
        95.24       95.11       95.00       94.92       94.87       94.84       94.85       94.88       94.94       95.02    
        95.12       95.24       95.37       95.51       95.66       95.81       95.96       96.11       96.26       96.40    
        96.54       96.68       96.81       96.94       97.06       97.18       97.29       97.40       97.50       97.60    
        97.70       97.79       97.88       97.96       98.04       98.11       98.19       98.26       98.32       98.39    
        98.45       98.51       98.57       98.62       98.67       98.73       98.77       98.82       98.87       98.91    
        98.95       98.99       99.03       99.07       99.11       99.14       99.18       99.21       99.24       99.27    
        99.30       99.33       99.36       99.39       99.41       99.44       99.47       99.49       99.52       99.54    
        99.57       99.59       99.62       99.64       99.67       99.70       99.74       99.78       99.83       99.90    
        100.0    
  20    100.0       99.27       98.79       98.44       98.15       97.90       97.68       97.47       97.28       97.08    
        96.89       96.70       96.51       96.32       96.12       95.93       95.74       95.56       95.38       95.21    
        95.06       94.92       94.80       94.72       94.66       94.63       94.63       94.67       94.73       94.82    
        94.94       95.07       95.21       95.36       95.52       95.68       95.84       96.00       96.16       96.31    
        96.46       96.60       96.74       96.87       97.00       97.12       97.24       97.35       97.45       97.56    
        97.65       97.75       97.83       97.92       98.00       98.08       98.15       98.22       98.29       98.36    
        98.42       98.48       98.54       98.60       98.65       98.70       98.75       98.80       98.85       98.89    
        98.93       98.97       99.01       99.05       99.09       99.13       99.16       99.19       99.23       99.26    
        99.29       99.32       99.35       99.38       99.40       99.43       99.46       99.48       99.51       99.53    
        99.56       99.58       99.61       99.64       99.67       99.70       99.73       99.77       99.82       99.89    
        100.0    
  21    100.0       99.26       98.77       98.41       98.12       97.87       97.64       97.43       97.22       97.02    
        96.82       96.62       96.43       96.22       96.02       95.82       95.62       95.43       95.24       95.06    
        94.89       94.74       94.62       94.52       94.46       94.43       94.43       94.47       94.54       94.64    
        94.77       94.91       95.06       95.22       95.39       95.56       95.73       95.90       96.07       96.23    
        96.38       96.53       96.67       96.81       96.94       97.07       97.19       97.30       97.41       97.51    
        97.61       97.71       97.80       97.88       97.97       98.05       98.12       98.19       98.26       98.33    
        98.40       98.46       98.52       98.57       98.63       98.68       98.73       98.78       98.83       98.87    
        98.91       98.96       99.00       99.04       99.07       99.11       99.15       99.18       99.21       99.24    
        99.28       99.31       99.34       99.36       99.39       99.42       99.45       99.47       99.50       99.52    
        99.55       99.58       99.60       99.63       99.66       99.69       99.73       99.77       99.82       99.89    
        100.0    
  22    100.0       99.25       98.75       98.39       98.09       97.83       97.60       97.38       97.17       96.97    
        96.76       96.56       96.35       96.15       95.94       95.73       95.52       95.31       95.11       94.92    
        94.74       94.58       94.45       94.35       94.28       94.25       94.26       94.30       94.38       94.48    
        94.62       94.77       94.93       95.10       95.28       95.46       95.64       95.82       95.99       96.15    
        96.31       96.47       96.62       96.76       96.89       97.02       97.14       97.26       97.37       97.47    
        97.58       97.67       97.76       97.85       97.94       98.02       98.09       98.17       98.24       98.31    
        98.37       98.43       98.49       98.55       98.61       98.66       98.71       98.76       98.81       98.85    
        98.90       98.94       98.98       99.02       99.06       99.10       99.13       99.17       99.20       99.23    
        99.26       99.29       99.32       99.35       99.38       99.41       99.44       99.46       99.49       99.52    
        99.54       99.57       99.60       99.63       99.65       99.69       99.72       99.77       99.82       99.89    
        100.0    
  23    100.0       99.24       98.74       98.37       98.07       97.81       97.57       97.35       97.14       96.93    
        96.72       96.51       96.30       96.08       95.87       95.65       95.43       95.21       95.00       94.80    
        94.62       94.45       94.31       94.20       94.13       94.10       94.11       94.15       94.24       94.35    
        94.49       94.65       94.82       95.00       95.19       95.38       95.56       95.75       95.92       96.09    
        96.26       96.42       96.57       96.71       96.85       96.98       97.10       97.22       97.33       97.44    
        97.54       97.64       97.74       97.83       97.91       97.99       98.07       98.14       98.22       98.28    
        98.35       98.41       98.47       98.53       98.59       98.64       98.69       98.74       98.79       98.84    
        98.88       98.92       98.97       99.01       99.05       99.08       99.12       99.15       99.19       99.22    
        99.25       99.28       99.31       99.34       99.37       99.40       99.43       99.46       99.48       99.51    
        99.54       99.56       99.59       99.62       99.65       99.68       99.72       99.76       99.82       99.89    
        100.0    
  24    100.0       99.23       98.73       98.35       98.05       97.79       97.55       97.32       97.11       96.89    
        96.68       96.47       96.25       96.03       95.81       95.59       95.36       95.14       94.92       94.72    
        94.52       94.35       94.20       94.09       94.01       93.98       93.99       94.04       94.13       94.25    
        94.39       94.56       94.74       94.93       95.12       95.31       95.50       95.69       95.87       96.04    
        96.21       96.37       96.53       96.67       96.81       96.94       97.07       97.19       97.31       97.41    
        97.52       97.62       97.71       97.80       97.89       97.97       98.05       98.12       98.20       98.26    
        98.33       98.39       98.46       98.51       98.57       98.63       98.68       98.73       98.78       98.82    
        98.87       98.91       98.95       98.99       99.03       99.07       99.11       99.14       99.18       99.21    
        99.24       99.27       99.31       99.33       99.36       99.39       99.42       99.45       99.48       99.50    
        99.53       99.56       99.59       99.61       99.64       99.68       99.71       99.76       99.81       99.89    
        100.0    
  25    100.0       99.23       98.72       98.34       98.03       97.77       97.53       97.30       97.08       96.87    
        96.65       96.44       96.22       96.00       95.77       95.54       95.32       95.09       94.87       94.66    
        94.46       94.28       94.13       94.01       93.94       93.90       93.91       93.96       94.05       94.18    
        94.33       94.50       94.68       94.87       95.07       95.27       95.46       95.65       95.83       96.01    
        96.18       96.34       96.50       96.64       96.79       96.92       97.05       97.17       97.28       97.39    
        97.50       97.60       97.69       97.78       97.87       97.95       98.03       98.11       98.18       98.25    
        98.31       98.38       98.44       98.50       98.56       98.61       98.66       98.71       98.76       98.81    
        98.86       98.90       98.94       98.98       99.02       99.06       99.10       99.13       99.17       99.20    
        99.23       99.27       99.30       99.33       99.36       99.39       99.41       99.44       99.47       99.50    
        99.52       99.55       99.58       99.61       99.64       99.67       99.71       99.76       99.81       99.89    
        100.0    
  26    100.0       99.22       98.71       98.33       98.03       97.76       97.52       97.29       97.07       96.86    
        96.64       96.42       96.20       95.98       95.75       95.52       95.29       95.07       94.84       94.63    
        94.43       94.25       94.10       93.98       93.90       93.86       93.87       93.93       94.02       94.14    
        94.29       94.47       94.65       94.84       95.04       95.24       95.44       95.63       95.81       95.99    
        96.16       96.32       96.48       96.63       96.77       96.90       97.03       97.15       97.27       97.38    
        97.48       97.58       97.67       97.77       97.85       97.94       98.02       98.09       98.16       98.23    
        98.30       98.37       98.43       98.49       98.54       98.60       98.65       98.70       98.75       98.80    
        98.84       98.89       98.93       98.97       99.01       99.05       99.09       99.12       99.16       99.19    
        99.23       99.26       99.29       99.32       99.35       99.38       99.41       99.44       99.46       99.49    
        99.52       99.55       99.58       99.60       99.64       99.67       99.71       99.75       99.81       99.88    
        100.0    
  27    100.0       99.22       98.71       98.33       98.02       97.76       97.52       97.29       97.07       96.85    
        96.64       96.42       96.20       95.98       95.75       95.52       95.30       95.07       94.85       94.63    
        94.43       94.26       94.11       93.99       93.91       93.87       93.88       93.93       94.02       94.15    
        94.30       94.47       94.65       94.84       95.04       95.24       95.43       95.62       95.80       95.98    
        96.15       96.31       96.47       96.62       96.76       96.89       97.02       97.14       97.25       97.36    
        97.47       97.57       97.66       97.75       97.84       97.92       98.00       98.08       98.15       98.22    
        98.29       98.35       98.42       98.48       98.53       98.59       98.64       98.69       98.74       98.79    
        98.83       98.88       98.92       98.96       99.00       99.04       99.08       99.12       99.15       99.18    
        99.22       99.25       99.28       99.31       99.34       99.37       99.40       99.43       99.46       99.49    
        99.51       99.54       99.57       99.60       99.63       99.67       99.71       99.75       99.81       99.88    
        100.0    
  28    100.0       99.22       98.71       98.33       98.03       97.76       97.52       97.29       97.08       96.86    
        96.65       96.43       96.21       95.99       95.77       95.54       95.32       95.10       94.88       94.67    
        94.47       94.30       94.15       94.04       93.96       93.93       93.93       93.98       94.07       94.19    
        94.33       94.50       94.68       94.87       95.06       95.25       95.44       95.63       95.81       95.99    
        96.15       96.31       96.47       96.61       96.75       96.89       97.01       97.13       97.25       97.36    
        97.46       97.56       97.66       97.75       97.83       97.92       98.00       98.07       98.14       98.21    
        98.28       98.35       98.41       98.47       98.52       98.58       98.63       98.68       98.73       98.78    
        98.83       98.87       98.91       98.95       99.00       99.03       99.07       99.11       99.14       99.18    
        99.21       99.24       99.28       99.31       99.34       99.37       99.40       99.42       99.45       99.48    
        99.51       99.54       99.57       99.60       99.63       99.66       99.70       99.75       99.80       99.88    
        100.0    
  29    100.0       99.23       98.72       98.34       98.04       97.77       97.53       97.31       97.09       96.88    
        96.67       96.45       96.24       96.02       95.80       95.58       95.36       95.15       94.94       94.73    
        94.54       94.38       94.24       94.13       94.05       94.02       94.02       94.07       94.15       94.27    
        94.40       94.56       94.74       94.92       95.10       95.29       95.47       95.66       95.83       96.00    
        96.17       96.33       96.48       96.62       96.76       96.89       97.01       97.13       97.25       97.36    
        97.46       97.56       97.65       97.74       97.83       97.91       97.99       98.07       98.14       98.21    
        98.27       98.34       98.40       98.46       98.52       98.57       98.63       98.68       98.73       98.77    
        98.82       98.86       98.91       98.95       98.99       99.03       99.07       99.10       99.14       99.17    
        99.21       99.24       99.27       99.30       99.33       99.36       99.39       99.42       99.45       99.48    
        99.51       99.53       99.56       99.59       99.63       99.66       99.70       99.75       99.80       99.88    
        100.0    
  30    100.0       99.23       98.72       98.35       98.05       97.79       97.55       97.33       97.11       96.90    
        96.70       96.49       96.28       96.07       95.86       95.64       95.43       95.22       95.02       94.82    
        94.64       94.48       94.35       94.25       94.18       94.14       94.15       94.19       94.27       94.37    
        94.50       94.65       94.82       94.99       95.17       95.34       95.52       95.70       95.87       96.03    
        96.19       96.35       96.50       96.64       96.77       96.90       97.02       97.14       97.25       97.36    
        97.46       97.56       97.65       97.74       97.83       97.91       97.99       98.06       98.13       98.20    
        98.27       98.33       98.40       98.46       98.51       98.57       98.62       98.67       98.72       98.77    
        98.81       98.86       98.90       98.94       98.98       99.02       99.06       99.10       99.13       99.17    
        99.20       99.23       99.27       99.30       99.33       99.36       99.39       99.42       99.44       99.47    
        99.50       99.53       99.56       99.59       99.62       99.66       99.70       99.74       99.80       99.88    
        100.0    
  31    100.0       99.24       98.74       98.37       98.07       97.81       97.57       97.36       97.15       96.94    
        96.74       96.53       96.33       96.13       95.92       95.72       95.51       95.31       95.12       94.94    
        94.77       94.62       94.49       94.39       94.33       94.29       94.30       94.33       94.40       94.50    
        94.62       94.76       94.92       95.08       95.25       95.42       95.59       95.75       95.92       96.08    
        96.23       96.38       96.52       96.66       96.79       96.92       97.04       97.15       97.26       97.37    
        97.47       97.56       97.66       97.74       97.83       97.91       97.99       98.06       98.13       98.20    
        98.27       98.33       98.39       98.45       98.51       98.56       98.62       98.67       98.72       98.76    
        98.81       98.85       98.90       98.94       98.98       99.02       99.06       99.09       99.13       99.16    
        99.20       99.23       99.26       99.29       99.32       99.35       99.38       99.41       99.44       99.47    
        99.50       99.53       99.56       99.59       99.62       99.66       99.70       99.74       99.80       99.88    
        100.0    
  32    100.0       99.25       98.75       98.38       98.09       97.83       97.60       97.39       97.18       96.98    
        96.79       96.59       96.39       96.20       96.00       95.80       95.61       95.42       95.24       95.07    
        94.91       94.77       94.65       94.56       94.50       94.47       94.47       94.50       94.56       94.65    
        94.76       94.89       95.03       95.18       95.34       95.50       95.66       95.82       95.98       96.13    
        96.28       96.42       96.56       96.69       96.82       96.94       97.06       97.17       97.28       97.38    
        97.48       97.57       97.67       97.75       97.83       97.91       97.99       98.06       98.14       98.20    
        98.27       98.33       98.39       98.45       98.51       98.56       98.61       98.67       98.71       98.76    
        98.81       98.85       98.89       98.94       98.98       99.01       99.05       99.09       99.13       99.16    
        99.19       99.23       99.26       99.29       99.32       99.35       99.38       99.41       99.44       99.47    
        99.50       99.53       99.55       99.59       99.62       99.65       99.69       99.74       99.80       99.88    
        100.0    
  33    100.0       99.25       98.77       98.41       98.11       97.86       97.64       97.43       97.23       97.03    
        96.84       96.65       96.46       96.28       96.09       95.90       95.72       95.54       95.37       95.21    
        95.06       94.93       94.82       94.74       94.68       94.65       94.65       94.68       94.74       94.82    
        94.92       95.03       95.16       95.30       95.45       95.60       95.75       95.90       96.04       96.19    
        96.33       96.47       96.60       96.73       96.85       96.97       97.08       97.19       97.30       97.40    
        97.50       97.59       97.68       97.76       97.84       97.92       98.00       98.07       98.14       98.21    
        98.27       98.33       98.39       98.45       98.51       98.56       98.61       98.66       98.71       98.76    
        98.81       98.85       98.89       98.93       98.97       99.01       99.05       99.09       99.12       99.16    
        99.19       99.22       99.26       99.29       99.32       99.35       99.38       99.41       99.44       99.46    
        99.49       99.52       99.55       99.58       99.62       99.65       99.69       99.74       99.80       99.88    
        100.0    
  34    100.0       99.27       98.78       98.43       98.14       97.90       97.68       97.47       97.28       97.09    
        96.91       96.72       96.54       96.36       96.18       96.01       95.84       95.67       95.51       95.36    
        95.22       95.10       95.00       94.93       94.87       94.84       94.84       94.87       94.92       94.99    
        95.08       95.18       95.30       95.43       95.56       95.70       95.84       95.98       96.12       96.26    
        96.39       96.52       96.65       96.77       96.89       97.01       97.12       97.22       97.32       97.42    
        97.51       97.61       97.69       97.78       97.86       97.93       98.01       98.08       98.15       98.21    
        98.28       98.34       98.40       98.46       98.51       98.56       98.62       98.67       98.71       98.76    
        98.81       98.85       98.89       98.93       98.97       99.01       99.05       99.09       99.12       99.16    
        99.19       99.22       99.25       99.29       99.32       99.35       99.38       99.41       99.43       99.46    
        99.49       99.52       99.55       99.58       99.62       99.65       99.69       99.74       99.80       99.88    
        100.0    
  35    100.0       99.28       98.81       98.46       98.18       97.94       97.72       97.52       97.34       97.15    
        96.98       96.80       96.63       96.46       96.29       96.12       95.96       95.80       95.66       95.52    
        95.39       95.28       95.19       95.12       95.07       95.04       95.04       95.06       95.10       95.17    
        95.25       95.34       95.45       95.56       95.69       95.81       95.94       96.07       96.20       96.33    
        96.46       96.58       96.70       96.82       96.94       97.05       97.15       97.25       97.35       97.45    
        97.54       97.63       97.71       97.79       97.87       97.95       98.02       98.09       98.16       98.22    
        98.28       98.34       98.40       98.46       98.51       98.57       98.62       98.67       98.72       98.76    
        98.81       98.85       98.89       98.93       98.97       99.01       99.05       99.09       99.12       99.15    
        99.19       99.22       99.25       99.28       99.32       99.35       99.37       99.40       99.43       99.46    
        99.49       99.52       99.55       99.58       99.61       99.65       99.69       99.74       99.80       99.88    
        100.0    
  36    100.0       99.29       98.83       98.49       98.21       97.98       97.77       97.58       97.40       97.22    
        97.05       96.88       96.72       96.55       96.40       96.24       96.09       95.94       95.81       95.68    
        95.56       95.46       95.38       95.31       95.27       95.24       95.24       95.25       95.29       95.34    
        95.42       95.50       95.60       95.70       95.81       95.93       96.05       96.17       96.29       96.41    
        96.53       96.65       96.76       96.88       96.98       97.09       97.19       97.29       97.38       97.48    
        97.56       97.65       97.73       97.81       97.89       97.96       98.03       98.10       98.17       98.23    
        98.29       98.35       98.41       98.47       98.52       98.57       98.62       98.67       98.72       98.76    
        98.81       98.85       98.89       98.93       98.97       99.01       99.05       99.09       99.12       99.15    
        99.19       99.22       99.25       99.28       99.31       99.34       99.37       99.40       99.43       99.46    
        99.49       99.52       99.55       99.58       99.61       99.65       99.69       99.74       99.80       99.88    
        100.0    
  37    100.0       99.31       98.85       98.52       98.25       98.02       97.82       97.63       97.46       97.29    
        97.13       96.97       96.81       96.66       96.51       96.36       96.22       96.08       95.96       95.84    
        95.73       95.64       95.56       95.50       95.46       95.44       95.43       95.44       95.47       95.52    
        95.59       95.66       95.75       95.84       95.94       96.05       96.16       96.27       96.38       96.50    
        96.61       96.72       96.83       96.93       97.04       97.14       97.23       97.33       97.42       97.51    
        97.59       97.68       97.75       97.83       97.91       97.98       98.05       98.12       98.18       98.24    
        98.30       98.36       98.42       98.47       98.53       98.58       98.63       98.68       98.72       98.77    
        98.81       98.86       98.90       98.94       98.98       99.01       99.05       99.09       99.12       99.16    
        99.19       99.22       99.25       99.28       99.31       99.34       99.37       99.40       99.43       99.46    
        99.49       99.52       99.55       99.58       99.61       99.65       99.69       99.74       99.80       99.88    
        100.0    
  38    100.0       99.32       98.88       98.55       98.29       98.07       97.87       97.69       97.52       97.36    
        97.21       97.05       96.90       96.76       96.62       96.48       96.35       96.23       96.11       96.00    
        95.90       95.82       95.75       95.69       95.65       95.63       95.62       95.63       95.66       95.70    
        95.75       95.82       95.90       95.98       96.07       96.17       96.27       96.37       96.48       96.58    
        96.69       96.79       96.89       96.99       97.09       97.19       97.28       97.37       97.46       97.54    
        97.62       97.70       97.78       97.86       97.93       98.00       98.07       98.13       98.20       98.26    
        98.32       98.37       98.43       98.48       98.54       98.59       98.63       98.68       98.73       98.77    
        98.82       98.86       98.90       98.94       98.98       99.02       99.05       99.09       99.12       99.16    
        99.19       99.22       99.25       99.29       99.32       99.35       99.37       99.40       99.43       99.46    
        99.49       99.52       99.55       99.58       99.61       99.65       99.69       99.74       99.80       99.88    
        100.0    
  39    100.0       99.34       98.91       98.59       98.33       98.12       97.93       97.75       97.59       97.44    
        97.29       97.14       97.00       96.86       96.73       96.60       96.48       96.37       96.26       96.16    
        96.07       95.99       95.92       95.87       95.83       95.81       95.80       95.81       95.83       95.87    
        95.92       95.98       96.04       96.12       96.20       96.29       96.38       96.48       96.58       96.67    
        96.77       96.87       96.96       97.06       97.15       97.24       97.33       97.41       97.50       97.58    
        97.66       97.73       97.81       97.88       97.95       98.02       98.09       98.15       98.21       98.27    
        98.33       98.39       98.44       98.49       98.55       98.59       98.64       98.69       98.74       98.78    
        98.82       98.86       98.90       98.94       98.98       99.02       99.06       99.09       99.13       99.16    
        99.19       99.22       99.26       99.29       99.32       99.35       99.38       99.40       99.43       99.46    
        99.49       99.52       99.55       99.58       99.61       99.65       99.69       99.74       99.80       99.88    
        100.0    
  40    100.0       99.35       98.93       98.62       98.38       98.17       97.98       97.82       97.66       97.51    
        97.37       97.23       97.10       96.97       96.84       96.73       96.61       96.50       96.40       96.31    
        96.23       96.15       96.09       96.04       96.01       95.99       95.98       95.99       96.00       96.03    
        96.08       96.13       96.19       96.26       96.33       96.41       96.50       96.58       96.67       96.76    
        96.85       96.94       97.03       97.12       97.21       97.29       97.38       97.46       97.54       97.62    
        97.69       97.77       97.84       97.91       97.98       98.04       98.11       98.17       98.23       98.29    
        98.35       98.40       98.45       98.51       98.56       98.61       98.65       98.70       98.74       98.79    
        98.83       98.87       98.91       98.95       98.99       99.02       99.06       99.09       99.13       99.16    
        99.19       99.23       99.26       99.29       99.32       99.35       99.38       99.41       99.43       99.46    
        99.49       99.52       99.55       99.58       99.61       99.65       99.69       99.74       99.80       99.88    
        100.0    
  41    100.0       99.37       98.96       98.66       98.42       98.22       98.04       97.88       97.73       97.59    
        97.45       97.32       97.19       97.07       96.96       96.84       96.74       96.64       96.54       96.46    
        96.38       96.31       96.26       96.21       96.18       96.16       96.15       96.15       96.17       96.19    
        96.23       96.28       96.33       96.39       96.46       96.53       96.61       96.69       96.77       96.85    
        96.94       97.02       97.10       97.19       97.27       97.35       97.43       97.51       97.58       97.66    
        97.73       97.80       97.87       97.94       98.01       98.07       98.13       98.19       98.25       98.31    
        98.36       98.42       98.47       98.52       98.57       98.62       98.66       98.71       98.75       98.80    
        98.84       98.88       98.92       98.96       98.99       99.03       99.06       99.10       99.13       99.17    
        99.20       99.23       99.26       99.29       99.32       99.35       99.38       99.41       99.44       99.46    
        99.49       99.52       99.55       99.58       99.62       99.65       99.69       99.74       99.80       99.88    
        100.0    
  42    100.0       99.39       98.99       98.70       98.47       98.27       98.10       97.94       97.80       97.66    
        97.53       97.41       97.29       97.18       97.07       96.96       96.86       96.77       96.68       96.60    
        96.53       96.47       96.42       96.37       96.34       96.32       96.31       96.31       96.33       96.35    
        96.38       96.42       96.47       96.52       96.58       96.65       96.72       96.79       96.87       96.94    
        97.02       97.10       97.18       97.25       97.33       97.41       97.48       97.56       97.63       97.70    
        97.77       97.84       97.91       97.97       98.03       98.10       98.16       98.21       98.27       98.33    
        98.38       98.43       98.48       98.53       98.58       98.63       98.67       98.72       98.76       98.80    
        98.85       98.89       98.92       98.96       99.00       99.03       99.07       99.10       99.14       99.17    
        99.20       99.23       99.26       99.29       99.32       99.35       99.38       99.41       99.44       99.47    
        99.49       99.52       99.55       99.58       99.62       99.65       99.69       99.74       99.80       99.88    
        100.0    
  43    100.0       99.41       99.02       98.74       98.51       98.32       98.16       98.01       97.87       97.74    
        97.61       97.50       97.38       97.28       97.17       97.07       96.98       96.89       96.81       96.74    
        96.67       96.62       96.57       96.53       96.50       96.48       96.47       96.47       96.48       96.50    
        96.52       96.56       96.60       96.65       96.70       96.76       96.83       96.89       96.96       97.03    
        97.10       97.18       97.25       97.32       97.39       97.47       97.54       97.61       97.68       97.75    
        97.81       97.88       97.94       98.00       98.07       98.12       98.18       98.24       98.29       98.35    
        98.40       98.45       98.50       98.55       98.60       98.64       98.69       98.73       98.77       98.81    
        98.85       98.89       98.93       98.97       99.01       99.04       99.08       99.11       99.14       99.18    
        99.21       99.24       99.27       99.30       99.33       99.36       99.38       99.41       99.44       99.47    
        99.50       99.53       99.55       99.59       99.62       99.65       99.69       99.74       99.80       99.88    
        100.0    
  44    100.0       99.42       99.05       98.77       98.56       98.37       98.21       98.07       97.94       97.81    
        97.70       97.58       97.48       97.37       97.28       97.18       97.10       97.02       96.94       96.87    
        96.81       96.76       96.71       96.67       96.64       96.63       96.62       96.61       96.62       96.64    
        96.66       96.69       96.73       96.77       96.82       96.88       96.93       96.99       97.06       97.12    
        97.19       97.25       97.32       97.39       97.46       97.53       97.59       97.66       97.73       97.79    
        97.85       97.92       97.98       98.04       98.10       98.15       98.21       98.26       98.32       98.37    
        98.42       98.47       98.52       98.57       98.61       98.66       98.70       98.74       98.79       98.83    
        98.87       98.90       98.94       98.98       99.01       99.05       99.08       99.12       99.15       99.18    
        99.21       99.24       99.27       99.30       99.33       99.36       99.39       99.42       99.44       99.47    
        99.50       99.53       99.56       99.59       99.62       99.65       99.69       99.74       99.80       99.88    
        100.0    
  45    100.0       99.44       99.08       98.81       98.60       98.43       98.27       98.13       98.01       97.89    
        97.77       97.67       97.57       97.47       97.38       97.29       97.21       97.13       97.06       97.00    
        96.94       96.89       96.85       96.81       96.79       96.77       96.76       96.75       96.76       96.77    
        96.79       96.82       96.85       96.89       96.94       96.98       97.04       97.09       97.15       97.21    
        97.27       97.33       97.39       97.46       97.52       97.59       97.65       97.71       97.77       97.84    
        97.90       97.96       98.02       98.07       98.13       98.18       98.24       98.29       98.34       98.39    
        98.44       98.49       98.54       98.58       98.63       98.67       98.72       98.76       98.80       98.84    
        98.88       98.91       98.95       98.99       99.02       99.06       99.09       99.12       99.16       99.19    
        99.22       99.25       99.28       99.31       99.34       99.36       99.39       99.42       99.45       99.47    
        99.50       99.53       99.56       99.59       99.62       99.66       99.70       99.74       99.80       99.88    
        100.0    
  46    100.0       99.46       99.11       98.85       98.65       98.48       98.33       98.19       98.07       97.96    
        97.85       97.75       97.65       97.56       97.48       97.40       97.32       97.25       97.18       97.12    
        97.07       97.02       96.98       96.94       96.92       96.90       96.89       96.89       96.89       96.90    
        96.92       96.94       96.97       97.01       97.05       97.09       97.14       97.19       97.24       97.29    
        97.35       97.41       97.47       97.53       97.59       97.65       97.71       97.77       97.82       97.88    
        97.94       98.00       98.05       98.11       98.16       98.22       98.27       98.32       98.37       98.42    
        98.47       98.51       98.56       98.60       98.65       98.69       98.73       98.77       98.81       98.85    
        98.89       98.93       98.96       99.00       99.03       99.07       99.10       99.13       99.16       99.19    
        99.22       99.25       99.28       99.31       99.34       99.37       99.40       99.42       99.45       99.48    
        99.51       99.53       99.56       99.59       99.62       99.66       99.70       99.74       99.80       99.88    
        100.0    
  47    100.0       99.48       99.13       98.89       98.69       98.53       98.38       98.26       98.14       98.03    
        97.93       97.83       97.74       97.65       97.57       97.50       97.42       97.36       97.29       97.24    
        97.19       97.14       97.10       97.07       97.05       97.03       97.02       97.01       97.01       97.02    
        97.04       97.06       97.08       97.12       97.15       97.19       97.23       97.28       97.33       97.38    
        97.43       97.48       97.54       97.59       97.65       97.71       97.76       97.82       97.87       97.93    
        97.98       98.04       98.09       98.15       98.20       98.25       98.30       98.35       98.40       98.44    
        98.49       98.53       98.58       98.62       98.67       98.71       98.75       98.79       98.83       98.86    
        98.90       98.94       98.97       99.01       99.04       99.07       99.11       99.14       99.17       99.20    
        99.23       99.26       99.29       99.32       99.35       99.37       99.40       99.43       99.45       99.48    
        99.51       99.54       99.57       99.59       99.63       99.66       99.70       99.75       99.80       99.88    
        100.0    
  48    100.0       99.49       99.16       98.92       98.73       98.58       98.44       98.32       98.20       98.10    
        98.00       97.91       97.82       97.74       97.66       97.59       97.52       97.46       97.40       97.35    
        97.30       97.26       97.22       97.19       97.17       97.15       97.14       97.13       97.13       97.14    
        97.15       97.17       97.19       97.22       97.25       97.29       97.33       97.37       97.41       97.46    
        97.51       97.56       97.61       97.66       97.71       97.77       97.82       97.87       97.92       97.98    
        98.03       98.08       98.13       98.18       98.23       98.28       98.33       98.38       98.42       98.47    
        98.51       98.56       98.60       98.64       98.68       98.72       98.76       98.80       98.84       98.88    
        98.91       98.95       98.98       99.02       99.05       99.08       99.12       99.15       99.18       99.21    
        99.24       99.27       99.30       99.32       99.35       99.38       99.41       99.43       99.46       99.49    
        99.51       99.54       99.57       99.60       99.63       99.66       99.70       99.75       99.80       99.88    
        100.0    
  49    100.0       99.51       99.19       98.96       98.78       98.62       98.49       98.37       98.27       98.17    
        98.07       97.99       97.90       97.83       97.75       97.68       97.62       97.56       97.50       97.45    
        97.41       97.37       97.33       97.31       97.28       97.27       97.25       97.25       97.25       97.25    
        97.26       97.28       97.30       97.32       97.35       97.38       97.42       97.46       97.50       97.54    
        97.58       97.63       97.68       97.73       97.77       97.82       97.87       97.92       97.97       98.02    
        98.07       98.12       98.17       98.22       98.27       98.31       98.36       98.41       98.45       98.50    
        98.54       98.58       98.62       98.66       98.70       98.74       98.78       98.82       98.86       98.89    
        98.93       98.96       99.00       99.03       99.06       99.09       99.13       99.16       99.19       99.22    
        99.25       99.27       99.30       99.33       99.36       99.38       99.41       99.44       99.46       99.49    
        99.52       99.54       99.57       99.60       99.63       99.67       99.70       99.75       99.81       99.88    
        100.0    
  50    100.0       99.53       99.22       98.99       98.82       98.67       98.54       98.43       98.33       98.23    
        98.14       98.06       97.98       97.91       97.84       97.77       97.71       97.66       97.60       97.56    
        97.51       97.47       97.44       97.41       97.39       97.38       97.36       97.36       97.36       97.36    
        97.37       97.38       97.40       97.42       97.45       97.48       97.51       97.54       97.58       97.62    
        97.66       97.70       97.75       97.79       97.84       97.88       97.93       97.98       98.02       98.07    
        98.12       98.16       98.21       98.26       98.30       98.35       98.39       98.44       98.48       98.52    
        98.56       98.60       98.65       98.68       98.72       98.76       98.80       98.84       98.87       98.91    
        98.94       98.98       99.01       99.04       99.07       99.11       99.14       99.17       99.20       99.22    
        99.25       99.28       99.31       99.34       99.36       99.39       99.42       99.44       99.47       99.49    
        99.52       99.55       99.58       99.60       99.64       99.67       99.71       99.75       99.81       99.88    
        100.0    
  51    100.0       99.54       99.24       99.03       98.86       98.72       98.60       98.49       98.39       98.30    
        98.21       98.13       98.06       97.99       97.92       97.86       97.80       97.75       97.70       97.65    
        97.61       97.58       97.54       97.52       97.50       97.48       97.47       97.46       97.46       97.46    
        97.47       97.48       97.50       97.51       97.54       97.56       97.59       97.62       97.66       97.69    
        97.73       97.77       97.81       97.85       97.90       97.94       97.98       98.03       98.07       98.12    
        98.16       98.21       98.25       98.30       98.34       98.38       98.42       98.47       98.51       98.55    
        98.59       98.63       98.67       98.71       98.74       98.78       98.82       98.85       98.89       98.92    
        98.96       98.99       99.02       99.05       99.09       99.12       99.15       99.18       99.21       99.23    
        99.26       99.29       99.32       99.34       99.37       99.40       99.42       99.45       99.47       99.50    
        99.53       99.55       99.58       99.61       99.64       99.67       99.71       99.75       99.81       99.88    
        100.0    
  52    100.0       99.56       99.27       99.06       98.90       98.76       98.65       98.54       98.45       98.36    
        98.28       98.20       98.13       98.06       98.00       97.94       97.89       97.84       97.79       97.75    
        97.71       97.67       97.64       97.62       97.60       97.58       97.57       97.56       97.56       97.56    
        97.56       97.57       97.59       97.61       97.63       97.65       97.68       97.70       97.73       97.77    
        97.80       97.84       97.88       97.92       97.96       98.00       98.04       98.08       98.12       98.16    
        98.21       98.25       98.29       98.33       98.38       98.42       98.46       98.50       98.54       98.58    
        98.62       98.65       98.69       98.73       98.77       98.80       98.84       98.87       98.91       98.94    
        98.97       99.00       99.04       99.07       99.10       99.13       99.16       99.19       99.22       99.24    
        99.27       99.30       99.32       99.35       99.38       99.40       99.43       99.45       99.48       99.50    
        99.53       99.56       99.58       99.61       99.64       99.68       99.71       99.76       99.81       99.89    
        100.0    
  53    100.0       99.57       99.30       99.10       98.94       98.81       98.69       98.59       98.50       98.42    
        98.34       98.27       98.20       98.14       98.08       98.02       97.97       97.92       97.88       97.83    
        97.80       97.76       97.74       97.71       97.69       97.67       97.66       97.66       97.65       97.65    
        97.66       97.67       97.68       97.69       97.71       97.73       97.75       97.78       97.81       97.84    
        97.87       97.91       97.94       97.98       98.02       98.05       98.09       98.13       98.17       98.21    
        98.25       98.29       98.33       98.37       98.41       98.45       98.49       98.53       98.57       98.61    
        98.64       98.68       98.72       98.75       98.79       98.82       98.86       98.89       98.92       98.96    
        98.99       99.02       99.05       99.08       99.11       99.14       99.17       99.20       99.23       99.25    
        99.28       99.31       99.33       99.36       99.38       99.41       99.44       99.46       99.49       99.51    
        99.54       99.56       99.59       99.62       99.65       99.68       99.72       99.76       99.81       99.89    
        100.0    
  54    100.0       99.59       99.32       99.13       98.98       98.85       98.74       98.64       98.56       98.48    
        98.40       98.33       98.27       98.21       98.15       98.10       98.05       98.00       97.96       97.92    
        97.88       97.85       97.83       97.80       97.78       97.77       97.75       97.75       97.74       97.74    
[...]
        99.44       99.44       99.45       99.46       99.46       99.47       99.48       99.49       99.49       99.50    
        99.51       99.52       99.53       99.53       99.54       99.55       99.56       99.57       99.58       99.59    
        99.60       99.61       99.62       99.63       99.63       99.64       99.65       99.66       99.67       99.68    
        99.69       99.70       99.71       99.72       99.73       99.74       99.75       99.75       99.76       99.77    
        99.78       99.79       99.79       99.80       99.81       99.81       99.82       99.82       99.83       99.83    
        99.83    
  89    99.66       99.66       99.66       99.65       99.65       99.64       99.63       99.62       99.61       99.60    
        99.59       99.58       99.56       99.55       99.54       99.53       99.52       99.51       99.50       99.49    
        99.48       99.48       99.47       99.46       99.45       99.45       99.44       99.44       99.43       99.43    
        99.43       99.42       99.42       99.42       99.42       99.42       99.42       99.42       99.42       99.42    
        99.42       99.42       99.43       99.43       99.43       99.44       99.44       99.44       99.45       99.45    
        99.46       99.47       99.47       99.48       99.48       99.49       99.50       99.51       99.51       99.52    
        99.53       99.54       99.54       99.55       99.56       99.57       99.58       99.59       99.59       99.60    
        99.61       99.62       99.63       99.64       99.65       99.66       99.67       99.68       99.68       99.69    
        99.70       99.71       99.72       99.73       99.74       99.75       99.75       99.76       99.77       99.78    
        99.79       99.79       99.80       99.81       99.81       99.82       99.82       99.83       99.83       99.83    
        99.84    
  90    99.68       99.68       99.67       99.67       99.66       99.65       99.64       99.64       99.63       99.61    
        99.60       99.59       99.58       99.57       99.56       99.55       99.54       99.53       99.52       99.51    
        99.51       99.50       99.49       99.48       99.48       99.47       99.47       99.46       99.46       99.45    
        99.45       99.45       99.45       99.44       99.44       99.44       99.44       99.44       99.44       99.44    
        99.45       99.45       99.45       99.45       99.46       99.46       99.46       99.47       99.47       99.48    
        99.48       99.49       99.49       99.50       99.51       99.51       99.52       99.53       99.53       99.54    
        99.55       99.55       99.56       99.57       99.58       99.59       99.59       99.60       99.61       99.62    
        99.63       99.64       99.64       99.65       99.66       99.67       99.68       99.69       99.70       99.70    
        99.71       99.72       99.73       99.74       99.75       99.75       99.76       99.77       99.78       99.79    
        99.79       99.80       99.81       99.81       99.82       99.83       99.83       99.83       99.84       99.84    
        99.84    
  91    99.69       99.69       99.69       99.68       99.67       99.67       99.66       99.65       99.64       99.63    
        99.62       99.61       99.60       99.59       99.58       99.57       99.56       99.55       99.54       99.54    
        99.53       99.52       99.51       99.51       99.50       99.50       99.49       99.49       99.48       99.48    
        99.47       99.47       99.47       99.47       99.47       99.47       99.47       99.47       99.47       99.47    
        99.47       99.47       99.47       99.48       99.48       99.48       99.49       99.49       99.49       99.50    
        99.50       99.51       99.51       99.52       99.53       99.53       99.54       99.54       99.55       99.56    
        99.56       99.57       99.58       99.59       99.59       99.60       99.61       99.62       99.63       99.63    
        99.64       99.65       99.66       99.67       99.67       99.68       99.69       99.70       99.71       99.72    
        99.72       99.73       99.74       99.75       99.76       99.76       99.77       99.78       99.79       99.79    
        99.80       99.81       99.81       99.82       99.83       99.83       99.84       99.84       99.84       99.84    
        99.85    
  92    99.70       99.70       99.70       99.69       99.69       99.68       99.67       99.66       99.66       99.65    
        99.64       99.63       99.62       99.61       99.60       99.59       99.58       99.57       99.56       99.56    
        99.55       99.54       99.53       99.53       99.52       99.52       99.51       99.51       99.50       99.50    
        99.50       99.49       99.49       99.49       99.49       99.49       99.49       99.49       99.49       99.49    
        99.49       99.49       99.49       99.50       99.50       99.50       99.51       99.51       99.51       99.52    
        99.52       99.53       99.53       99.54       99.54       99.55       99.56       99.56       99.57       99.58    
        99.58       99.59       99.60       99.60       99.61       99.62       99.62       99.63       99.64       99.65    
        99.66       99.66       99.67       99.68       99.69       99.69       99.70       99.71       99.72       99.73    
        99.73       99.74       99.75       99.76       99.76       99.77       99.78       99.79       99.79       99.80    
        99.81       99.81       99.82       99.83       99.83       99.84       99.84       99.85       99.85       99.85    
        99.85    
  93    99.71       99.71       99.71       99.71       99.70       99.69       99.69       99.68       99.67       99.66    
        99.65       99.64       99.63       99.62       99.62       99.61       99.60       99.59       99.58       99.57    
        99.57       99.56       99.55       99.55       99.54       99.54       99.53       99.53       99.52       99.52    
        99.52       99.52       99.51       99.51       99.51       99.51       99.51       99.51       99.51       99.51    
        99.51       99.51       99.52       99.52       99.52       99.52       99.53       99.53       99.53       99.54    
        99.54       99.55       99.55       99.56       99.56       99.57       99.57       99.58       99.59       99.59    
        99.60       99.60       99.61       99.62       99.62       99.63       99.64       99.65       99.65       99.66    
        99.67       99.68       99.68       99.69       99.70       99.71       99.71       99.72       99.73       99.74    
        99.74       99.75       99.76       99.77       99.77       99.78       99.79       99.79       99.80       99.81    
        99.81       99.82       99.83       99.83       99.84       99.84       99.85       99.85       99.85       99.85    
        99.86    
  94    99.72       99.72       99.72       99.72       99.71       99.70       99.70       99.69       99.68       99.67    
        99.67       99.66       99.65       99.64       99.63       99.62       99.61       99.61       99.60       99.59    
        99.58       99.58       99.57       99.57       99.56       99.56       99.55       99.55       99.54       99.54    
        99.54       99.54       99.53       99.53       99.53       99.53       99.53       99.53       99.53       99.53    
        99.53       99.53       99.53       99.54       99.54       99.54       99.55       99.55       99.55       99.56    
        99.56       99.56       99.57       99.57       99.58       99.58       99.59       99.60       99.60       99.61    
        99.61       99.62       99.63       99.63       99.64       99.65       99.65       99.66       99.67       99.67    
        99.68       99.69       99.69       99.70       99.71       99.72       99.72       99.73       99.74       99.75    
        99.75       99.76       99.77       99.77       99.78       99.79       99.79       99.80       99.81       99.81    
        99.82       99.83       99.83       99.84       99.84       99.85       99.85       99.85       99.86       99.86    
        99.86    
  95    99.73       99.73       99.73       99.73       99.72       99.72       99.71       99.70       99.69       99.69    
        99.68       99.67       99.66       99.65       99.64       99.64       99.63       99.62       99.61       99.61    
        99.60       99.59       99.59       99.58       99.58       99.57       99.57       99.56       99.56       99.56    
        99.56       99.55       99.55       99.55       99.55       99.55       99.55       99.55       99.55       99.55    
        99.55       99.55       99.55       99.55       99.56       99.56       99.56       99.57       99.57       99.57    
        99.58       99.58       99.58       99.59       99.59       99.60       99.60       99.61       99.62       99.62    
        99.63       99.63       99.64       99.65       99.65       99.66       99.66       99.67       99.68       99.68    
        99.69       99.70       99.71       99.71       99.72       99.73       99.73       99.74       99.75       99.75    
        99.76       99.77       99.77       99.78       99.79       99.79       99.80       99.81       99.81       99.82    
        99.83       99.83       99.84       99.84       99.85       99.85       99.86       99.86       99.86       99.86    
        99.86    
  96    99.74       99.74       99.74       99.73       99.73       99.72       99.72       99.71       99.70       99.70    
        99.69       99.68       99.67       99.66       99.66       99.65       99.64       99.63       99.63       99.62    
        99.61       99.61       99.60       99.60       99.59       99.59       99.58       99.58       99.58       99.57    
        99.57       99.57       99.57       99.57       99.56       99.56       99.56       99.56       99.56       99.56    
        99.56       99.57       99.57       99.57       99.57       99.57       99.58       99.58       99.58       99.59    
        99.59       99.59       99.60       99.60       99.61       99.61       99.62       99.62       99.63       99.63    
        99.64       99.65       99.65       99.66       99.66       99.67       99.68       99.68       99.69       99.70    
        99.70       99.71       99.71       99.72       99.73       99.73       99.74       99.75       99.75       99.76    
        99.77       99.78       99.78       99.79       99.79       99.80       99.81       99.81       99.82       99.83    
        99.83       99.84       99.84       99.85       99.85       99.86       99.86       99.86       99.87       99.87    
        99.87    
  97    99.75       99.75       99.75       99.74       99.74       99.73       99.73       99.72       99.71       99.71    
        99.70       99.69       99.68       99.68       99.67       99.66       99.65       99.65       99.64       99.63    
        99.63       99.62       99.62       99.61       99.61       99.60       99.60       99.59       99.59       99.59    
        99.59       99.58       99.58       99.58       99.58       99.58       99.58       99.58       99.58       99.58    
        99.58       99.58       99.58       99.58       99.59       99.59       99.59       99.59       99.60       99.60    
        99.60       99.61       99.61       99.62       99.62       99.62       99.63       99.63       99.64       99.65    
        99.65       99.66       99.66       99.67       99.67       99.68       99.69       99.69       99.70       99.70    
        99.71       99.72       99.72       99.73       99.74       99.74       99.75       99.76       99.76       99.77    
        99.78       99.78       99.79       99.79       99.80       99.81       99.81       99.82       99.82       99.83    
        99.84       99.84       99.85       99.85       99.86       99.86       99.86       99.87       99.87       99.87    
        99.87    
  98    99.76       99.75       99.75       99.75       99.74       99.74       99.73       99.73       99.72       99.71    
        99.71       99.70       99.69       99.68       99.68       99.67       99.66       99.66       99.65       99.64    
        99.64       99.63       99.63       99.62       99.62       99.61       99.61       99.61       99.60       99.60    
        99.60       99.59       99.59       99.59       99.59       99.59       99.59       99.59       99.59       99.59    
        99.59       99.59       99.59       99.59       99.60       99.60       99.60       99.60       99.61       99.61    
        99.61       99.62       99.62       99.63       99.63       99.63       99.64       99.64       99.65       99.65    
        99.66       99.66       99.67       99.68       99.68       99.69       99.69       99.70       99.71       99.71    
        99.72       99.72       99.73       99.74       99.74       99.75       99.76       99.76       99.77       99.77    
        99.78       99.79       99.79       99.80       99.81       99.81       99.82       99.82       99.83       99.83    
        99.84       99.85       99.85       99.85       99.86       99.86       99.87       99.87       99.87       99.87    
        99.87    
  99    99.76       99.76       99.76       99.75       99.75       99.74       99.74       99.73       99.73       99.72    
        99.71       99.71       99.70       99.69       99.68       99.68       99.67       99.66       99.66       99.65    
        99.65       99.64       99.63       99.63       99.63       99.62       99.62       99.61       99.61       99.61    
        99.61       99.60       99.60       99.60       99.60       99.60       99.60       99.60       99.60       99.60    
        99.60       99.60       99.60       99.60       99.61       99.61       99.61       99.61       99.62       99.62    
        99.62       99.63       99.63       99.63       99.64       99.64       99.65       99.65       99.66       99.66    
        99.67       99.67       99.68       99.68       99.69       99.69       99.70       99.71       99.71       99.72    
        99.72       99.73       99.74       99.74       99.75       99.75       99.76       99.77       99.77       99.78    
        99.78       99.79       99.80       99.80       99.81       99.82       99.82       99.83       99.83       99.84    
        99.84       99.85       99.85       99.86       99.86       99.87       99.87       99.87       99.87       99.87    
        99.88    
 100    99.76       99.76       99.76       99.76       99.75       99.75       99.74       99.74       99.73       99.72    
        99.72       99.71       99.70       99.70       99.69       99.68       99.68       99.67       99.66       99.66    
        99.65       99.65       99.64       99.64       99.63       99.63       99.62       99.62       99.62       99.61    
        99.61       99.61       99.61       99.61       99.60       99.60       99.60       99.60       99.60       99.60    
        99.61       99.61       99.61       99.61       99.61       99.61       99.62       99.62       99.62       99.62    
        99.63       99.63       99.64       99.64       99.64       99.65       99.65       99.66       99.66       99.67    
        99.67       99.68       99.68       99.69       99.69       99.70       99.70       99.71       99.72       99.72    
        99.73       99.73       99.74       99.75       99.75       99.76       99.76       99.77       99.78       99.78    
        99.79       99.79       99.80       99.81       99.81       99.82       99.82       99.83       99.83       99.84    
        99.84       99.85       99.85       99.86       99.86       99.87       99.87       99.87       99.87       99.88    
        99.88    
 101    99.76       99.76       99.76       99.76       99.75       99.75       99.74       99.74       99.73       99.73    
        99.72       99.71       99.70       99.70       99.69       99.68       99.68       99.67       99.67       99.66    
        99.65       99.65       99.64       99.64       99.63       99.63       99.63       99.62       99.62       99.62    
        99.61       99.61       99.61       99.61       99.61       99.61       99.61       99.61       99.61       99.61    
        99.61       99.61       99.61       99.61       99.61       99.62       99.62       99.62       99.62       99.63    
        99.63       99.63       99.64       99.64       99.65       99.65       99.65       99.66       99.66       99.67    
        99.67       99.68       99.68       99.69       99.69       99.70       99.71       99.71       99.72       99.72    
        99.73       99.74       99.74       99.75       99.75       99.76       99.77       99.77       99.78       99.78    
        99.79       99.80       99.80       99.81       99.81       99.82       99.82       99.83       99.84       99.84    
        99.85       99.85       99.86       99.86       99.86       99.87       99.87       99.87       99.88       99.88    
        99.88    

 HEAD WILL BE SAVED ON UNIT 1016 AT END OF TIME STEP    1, STRESS PERIOD    1


  VOLUME BUDGET FOR ENTIRE MODEL AT END OF TIME STEP    1, STRESS PERIOD   1
  ---------------------------------------------------------------------------------------------------

     CUMULATIVE VOLUME      L**3       RATES FOR THIS TIME STEP      L**3/T          PACKAGE NAME    
     ------------------                 ------------------------                     ----------------

           IN:                                      IN:
           ---                                      ---
              STO-SS =         116.1911                STO-SS =         116.1911     STORAGE                          
              STO-SY =           0.0000                STO-SY =           0.0000     STORAGE                          
                 WEL =           0.0000                   WEL =           0.0000     WEL_0                            
                RCHA =           0.0000                  RCHA =           0.0000     RCH                              
                 CHD =         881.5838                   CHD =         881.5838     CHD_0                            

            TOTAL IN =         997.7749              TOTAL IN =         997.7749

          OUT:                                     OUT:
          ----                                     ----
              STO-SS =           0.0000                STO-SS =           0.0000     STORAGE                          
              STO-SY =           0.0000                STO-SY =           0.0000     STORAGE                          
                 WEL =        1000.0000                   WEL =        1000.0000     WEL_0                            
                RCHA =           0.0000                  RCHA =           0.0000     RCH                              
                 CHD =           0.0000                   CHD =           0.0000     CHD_0                            

           TOTAL OUT =        1000.0000             TOTAL OUT =        1000.0000

            IN - OUT =          -2.2251              IN - OUT =          -2.2251

 PERCENT DISCREPANCY =          -0.22     PERCENT DISCREPANCY =          -0.22




         TIME SUMMARY AT END OF TIME STEP    1 IN STRESS PERIOD    1
                    SECONDS     MINUTES      HOURS       DAYS        YEARS
                    -----------------------------------------------------------
   TIME STEP LENGTH  86400.      1440.0      24.000      1.0000     2.73785E-03
 STRESS PERIOD TIME  86400.      1440.0      24.000      1.0000     2.73785E-03
         TOTAL TIME  86400.      1440.0      24.000      1.0000     2.73785E-03


end timestep

