                                   MODFLOW 6
                U.S. GEOLOGICAL SURVEY MODULAR HYDROLOGIC MODEL
                          GROUNDWATER FLOW MODEL (GWF)
                        VERSION 6.4.1 Release 12/09/2022

   MODFLOW 6 compiled Dec 09 2022 18:18:37 with Intel(R) Fortran Intel(R) 64
   Compiler Classic for applications running on Intel(R) 64, Version 2021.7.0
                             Build 20220726_000000

This software has been approved for release by the U.S. Geological 
Survey (USGS). Although the software has been subjected to rigorous 
review, the USGS reserves the right to update the software as needed 
pursuant to further analysis and review. No warranty, expressed or 
implied, is made by the USGS or the U.S. Government as to the 
functionality of the software and related material nor shall the 
fact of release constitute any such warranty. Furthermore, the 
software is released on condition that neither the USGS nor the U.S. 
Government shall be held liable for any damages resulting from its 
authorized or unauthorized use. Also refer to the USGS Water 
Resources Software User Rights Notice for complete use, copyright, 
and distribution information.


As a work of the United States Government, this USGS product is 
in the public domain within the United States. You can copy, 
modify, distribute, and perform the work, even for commercial 
purposes, all without asking permission. Additionally, USGS 
waives copyright and related rights in the work worldwide 
through CC0 1.0 Universal Public Domain Dedication 
(https://creativecommons.org/publicdomain/zero/1.0/).

The following GNU Lesser General Public License (LGPL) libraries
are used in this USGS product:

    SPARSKIT version 2.0
      ilut, luson, and qsplit 
      (https://www-users.cse.umn.edu/~saad/software/SPARSKIT/)

    RCM - Reverse Cuthill McKee Ordering
      (https://people.math.sc.edu/Burkardt/f_src/rcm/rcm.html)

    BLAS - Basic Linear Algebra Subprograms Level 1
      (https://people.math.sc.edu/Burkardt/f_src/blas1_d/blas1_d.html)

    SPARSEKIT - Sparse Matrix Utility Package
      amux, dperm, dvperm, rperm, and cperm
      (https://people.sc.fsu.edu/~jburkardt/f77_src/sparsekit/sparsekit.html)

The following BSD-3 License libraries are used in this USGS product:

    Modern Fortran DAG Library
      Copyright (c) 2018, Jacob Williams
      All rights reserved.
      (https://github.com/jacobwilliams/daglib)

MODFLOW 6 compiler options: /Isrc\libmf6core.a.p /Isrc /I..\src
/Isrc\libmf6_external.a.p /MTd /nologo /warn:general /warn:truncated_source
/stand:f08 /Zi /traceback /O2 /fpe:0 /heap-arrays:0 /traceback /fpp
/Qdiag-disable:7416 /Qdiag-disable:7025 /Qdiag-disable:5268
/Fdsrc\libmf6core.a.p\Utilities_compilerversion.F90.pdb
/module:src\libmf6core.a.p
/Fosrc/libmf6core.a.p/Utilities_compilerversion.F90.obj /c

System command used to initiate simulation:
"C:\Users\ksil8584\OneDrive - The University of Sydney (Staff)\Documents\Modflow\mf6.4.1\bin\mf6.exe"

MODFLOW was compiled using uniform precision.

Real Variables
  KIND: 8
  TINY (smallest non-zero value):    2.225074-308
  HUGE (largest value):    1.797693+308
  PRECISION: 15
  SIZE IN BITS: 64

Integer Variables
  KIND: 4
  HUGE (largest value): 2147483647
  SIZE IN BITS: 32

Long Integer Variables
  KIND: 8
  HUGE (largest value): 9223372036854775807
  SIZE IN BITS: 64

Logical Variables
  KIND: 4
  SIZE IN BITS: 32
 

 OPENED FloPy_ModelS_T1b.dis
 FILE TYPE:DIS6                   UNIT 1005   STATUS:OLD                 
 FORMAT:FORMATTED              ACCESS:SEQUENTIAL          
 ACTION:READ                


 OPENED FloPy_ModelS_T1b.ic
 FILE TYPE:IC6                    UNIT 1006   STATUS:OLD                 
 FORMAT:FORMATTED              ACCESS:SEQUENTIAL          
 ACTION:READ                


 OPENED FloPy_ModelS_T1b.npf
 FILE TYPE:NPF6                   UNIT 1007   STATUS:OLD                 
 FORMAT:FORMATTED              ACCESS:SEQUENTIAL          
 ACTION:READ                


 OPENED FloPy_ModelS_T1b.sto
 FILE TYPE:STO6                   UNIT 1008   STATUS:OLD                 
 FORMAT:FORMATTED              ACCESS:SEQUENTIAL          
 ACTION:READ                


 OPENED FloPy_ModelS_T1b.chd
 FILE TYPE:CHD6                   UNIT 1009   STATUS:OLD                 
 FORMAT:FORMATTED              ACCESS:SEQUENTIAL          
 ACTION:READ                


 OPENED FloPy_ModelS_T1b.oc
 FILE TYPE:OC6                    UNIT 1010   STATUS:OLD                 
 FORMAT:FORMATTED              ACCESS:SEQUENTIAL          
 ACTION:READ                


 OPENED FloPy_ModelS_T1b.wel
 FILE TYPE:WEL6                   UNIT 1011   STATUS:OLD                 
 FORMAT:FORMATTED              ACCESS:SEQUENTIAL          
 ACTION:READ                


 OPENED FloPy_ModelS_T1b.rcha
 FILE TYPE:RCH6                   UNIT 1012   STATUS:OLD                 
 FORMAT:FORMATTED              ACCESS:SEQUENTIAL          
 ACTION:READ                

 NAMEFILE OPTIONS:
    FLOWS WILL BE SAVED TO BUDGET FILE SPECIFIED IN OUTPUT CONTROL
    NEWTON-RAPHSON method enabled for the model.
    NEWTON-RAPHSON UNDER-RELAXATION based on the bottom elevation of the model will be applied to the model.

 DIS -- STRUCTURED GRID DISCRETIZATION PACKAGE, VERSION 2 : 3/27/2014 - INPUT READ FROM UNIT 1005

 Loading input for FLOPY_MODELS_T1B/DIS
 # File generated by Flopy version 3.3.6 on 06/26/2023 at 15:19:01.
   NLAY = 10
   NROW = 101
   NCOL = 101
   DELR = 4.000000000000000
   DELC = 4.000000000000000
   TOP = .000000000000000
   BOTM = variable 3D double precision array ranging from -50.00000000000000 to -5.000000000000000
 Loading input complete...


 NPF -- NODE PROPERTY FLOW PACKAGE, VERSION 1, 3/30/2015 INPUT READ FROM UNIT 1007

 Loading input for FLOPY_MODELS_T1B/NPF
 # File generated by Flopy version 3.3.6 on 06/26/2023 at 15:19:01.
   ICELLTYPE = 1
   K = 1.000000000000000
 Loading input complete...

 Setting Discretization Options
 End Setting Discretization Options

 Setting Discretization Dimensions
    NLAY = 10
    NROW = 101
    NCOL = 101
 End Setting Discretization Dimensions

 Setting Discretization Griddata
    DELR set from input file
    DELC set from input file
    TOP set from input file
    BOTM set from input file
 End Setting Discretization Griddata

 Setting NPF Options
 End Setting NPF Options

 Setting NPF Griddata
    ICELLTYPE set from input file
    K set from input file
    K33 not provided.  Setting K33 = K.
    K22 not provided.  Setting K22 = K.
 End Setting NPF Griddata


 WEL   -- WEL PACKAGE, VERSION 8, 2/22/2014 INPUT READ FROM UNIT 1011
 # File generated by Flopy version 3.3.6 on 06/26/2023 at 15:19:01.

 PROCESSING WEL OPTIONS
 END OF WEL OPTIONS

 PROCESSING WEL DIMENSIONS
    MAXBOUND =       1
 END OF WEL DIMENSIONS

 RCH   -- RCH PACKAGE, VERSION 8, 2/22/2014 INPUT READ FROM UNIT 1012
 # File generated by Flopy version 3.3.6 on 06/26/2023 at 15:19:01.

 PROCESSING RCH OPTIONS
    RECHARGE INPUT WILL BE READ AS ARRAY(S).
 END OF RCHA OPTIONS

 CHD   -- CHD PACKAGE, VERSION 8, 2/22/2014 INPUT READ FROM UNIT 1009
 # File generated by Flopy version 3.3.6 on 06/26/2023 at 15:19:01.

 PROCESSING CHD OPTIONS
 END OF CHD OPTIONS

 PROCESSING CHD DIMENSIONS
    MAXBOUND =     400
 END OF CHD DIMENSIONS

 IC -- INITIAL CONDITIONS PACKAGE, VERSION 8, 3/28/2015 INPUT READ FROM UNIT 1006
 # File generated by Flopy version 3.3.6 on 06/26/2023 at 15:19:01.
 PROCESSING GRIDDATA
 END PROCESSING GRIDDATA

 STO -- STORAGE PACKAGE, VERSION 1, 5/19/2014 INPUT READ FROM UNIT 1008


 # File generated by Flopy version 3.3.6 on 06/26/2023 at 15:19:01.
 PROCESSING STORAGE OPTIONS
 END OF STORAGE OPTIONS
 PROCESSING GRIDDATA

                 ICONVERT = 1

         SPECIFIC STORAGE =  0.1000000E-04

           SPECIFIC YIELD =  0.1500000    
 END PROCESSING GRIDDATA
    BINARY GRID INFORMATION WILL BE WRITTEN TO:
      UNIT NUMBER: 1014
      FILE NAME: C:\Users\ksil8584\OneDrive - The University of Sydney (Staff)\Documents\Modflow\FloPy models\FP_ModelS_1b\output_q_700-1300_r_005-01\FloPy_ModelS_T1b.dis.grb

 OPENED C:\Users\ksil8584\OneDrive - The University of Sydney (Staff)\Documents\Modflow\FloPy models\FP_ModelS_1b\output_q_700-1300_r_005-01\FloPy_ModelS_T1b.dis.grb
 FILE TYPE:DATA(BINARY)   UNIT 1014   STATUS:REPLACE             
 FORMAT:UNFORMATTED            ACCESS:STREAM              
 ACTION:READWRITE           

      THE LAST TIME STEP WILL BE PRINTED
      THE LAST TIME STEP WILL BE PRINTED
 # File generated by Flopy version 3.3.6 on 06/26/2023 at 15:19:01.

 PROCESSING OC OPTIONS

    BUDGET INFORMATION WILL BE WRITTEN TO:
      UNIT NUMBER: 1015
      FILE NAME: FloPy_ModelS_T1b.cbb

 OPENED FloPy_ModelS_T1b.cbb
 FILE TYPE:DATA(BINARY)   UNIT 1015   STATUS:REPLACE             
 FORMAT:UNFORMATTED            ACCESS:STREAM              
 ACTION:READWRITE           

    HEAD INFORMATION WILL BE WRITTEN TO:
      UNIT NUMBER: 1016
      FILE NAME: FloPy_ModelS_T1b.hds

 OPENED FloPy_ModelS_T1b.hds
 FILE TYPE:DATA(BINARY)   UNIT 1016   STATUS:REPLACE             
 FORMAT:UNFORMATTED            ACCESS:STREAM              
 ACTION:READWRITE           

 END OF OC OPTIONS

start timestep kper="1" kstp="1" mode="normal"


 BEGIN READING OUTPUT CONTROL FOR STRESS PERIOD 1
      ALL TIME STEPS WILL BE SAVED
      ALL TIME STEPS WILL BE SAVED
      THE LAST TIME STEP WILL BE PRINTED

 END READING OUTPUT CONTROL FOR STRESS PERIOD 1


 STRESS PERIOD 1 IS TRANSIENT


                 RECHARGE =  0.9754140E-02
 UBDSV1 SAVING           STO-SS ON UNIT   1015 AT TIME STEP      1, STRESS PERIOD      1
 UBDSV1 SAVING           STO-SY ON UNIT   1015 AT TIME STEP      1, STRESS PERIOD      1
 UBDSV1 SAVING     FLOW-JA-FACE ON UNIT   1015 AT TIME STEP      1, STRESS PERIOD      1
 UBDSV06 SAVING              WEL IN MODEL FLOPY_MODELS_T1B PACKAGE FLOPY_MODELS_T1BCONNECTED TO MODEL FLOPY_MODELS_T1B PACKAGE WEL_0            ON UNIT   1015 AT TIME STEP      1, STRESS PERIOD      1
 UBDSV06 SAVING             RCHA IN MODEL FLOPY_MODELS_T1B PACKAGE FLOPY_MODELS_T1BCONNECTED TO MODEL FLOPY_MODELS_T1B PACKAGE RCH              ON UNIT   1015 AT TIME STEP      1, STRESS PERIOD      1
 UBDSV06 SAVING              CHD IN MODEL FLOPY_MODELS_T1B PACKAGE FLOPY_MODELS_T1BCONNECTED TO MODEL FLOPY_MODELS_T1B PACKAGE CHD_0            ON UNIT   1015 AT TIME STEP      1, STRESS PERIOD      1
1
  HEAD IN LAYER   1 AT END OF TIME STEP   1 IN STRESS PERIOD    1
  ---------------------------------------------------------------------------

            1           2           3           4           5           6           7           8           9          10
           11          12          13          14          15          16          17          18          19          20
           21          22          23          24          25          26          27          28          29          30
           31          32          33          34          35          36          37          38          39          40
           41          42          43          44          45          46          47          48          49          50
           51          52          53          54          55          56          57          58          59          60
           61          62          63          64          65          66          67          68          69          70
           71          72          73          74          75          76          77          78          79          80
           81          82          83          84          85          86          87          88          89          90
           91          92          93          94          95          96          97          98          99         100
          101
 ........................................................................................................................
   1    100.0       100.0       100.0       100.0       100.0       100.0       100.0       100.0       100.0       100.0    
        100.0       100.0       100.0       100.0       100.0       100.0       100.0       100.0       100.0       100.0    
        100.0       100.0       100.0       100.0       100.0       100.0       100.0       100.0       100.0       100.0    
        100.0       100.0       100.0       100.0       100.0       100.0       100.0       100.0       100.0       100.0    
        100.0       100.0       100.0       100.0       100.0       100.0       100.0       100.0       100.0       100.0    
        100.0       100.0       100.0       100.0       100.0       100.0       100.0       100.0       100.0       100.0    
        100.0       100.0       100.0       100.0       100.0       100.0       100.0       100.0       100.0       100.0    
        100.0       100.0       100.0       100.0       100.0       100.0       100.0       100.0       100.0       100.0    
        100.0       100.0       100.0       100.0       100.0       100.0       100.0       100.0       100.0       100.0    
        100.0       100.0       100.0       100.0       100.0       100.0       100.0       100.0       100.0       100.0    
        100.0    
   2    100.0       99.88       99.81       99.77       99.74       99.71       99.69       99.67       99.64       99.62    
        99.60       99.58       99.56       99.54       99.53       99.51       99.49       99.48       99.47       99.45    
        99.44       99.44       99.43       99.43       99.43       99.43       99.43       99.44       99.44       99.46    
        99.47       99.48       99.50       99.52       99.54       99.56       99.58       99.60       99.62       99.65    
        99.67       99.69       99.72       99.74       99.77       99.79       99.81       99.84       99.86       99.88    
        99.90       99.92       99.94       99.96       99.98      100.00       100.0       100.0       100.0       100.1    
        100.1       100.1       100.1       100.1       100.1       100.1       100.1       100.2       100.2       100.2    
        100.2       100.2       100.2       100.2       100.2       100.2       100.2       100.2       100.2       100.2    
        100.2       100.2       100.2       100.2       100.2       100.2       100.2       100.2       100.2       100.2    
        100.2       100.2       100.2       100.2       100.2       100.2       100.2       100.1       100.1       100.1    
        100.0    
   3    100.0       99.81       99.71       99.63       99.58       99.53       99.49       99.45       99.41       99.37    
        99.34       99.31       99.27       99.24       99.21       99.18       99.16       99.13       99.11       99.09    
        99.07       99.06       99.05       99.05       99.04       99.05       99.05       99.06       99.07       99.09    
        99.11       99.14       99.16       99.19       99.23       99.26       99.30       99.33       99.37       99.41    
        99.45       99.49       99.53       99.57       99.61       99.65       99.69       99.72       99.76       99.80    
        99.83       99.87       99.90       99.93       99.96       99.99       100.0       100.0       100.1       100.1    
        100.1       100.1       100.2       100.2       100.2       100.2       100.2       100.2       100.3       100.3    
        100.3       100.3       100.3       100.3       100.3       100.3       100.3       100.3       100.4       100.4    
        100.4       100.4       100.4       100.4       100.4       100.4       100.4       100.4       100.4       100.3    
        100.3       100.3       100.3       100.3       100.3       100.3       100.3       100.2       100.2       100.1    
        100.0    
   4    100.0       99.77       99.63       99.53       99.46       99.40       99.34       99.29       99.24       99.19    
        99.15       99.10       99.06       99.02       98.98       98.94       98.90       98.87       98.84       98.82    
        98.79       98.78       98.76       98.76       98.75       98.76       98.76       98.78       98.79       98.82    
        98.84       98.87       98.91       98.95       98.99       99.04       99.08       99.13       99.18       99.23    
        99.28       99.34       99.39       99.44       99.49       99.54       99.59       99.64       99.69       99.74    
        99.78       99.82       99.87       99.91       99.95       99.98       100.0       100.1       100.1       100.1    
        100.1       100.2       100.2       100.2       100.3       100.3       100.3       100.3       100.3       100.4    
        100.4       100.4       100.4       100.4       100.4       100.4       100.4       100.4       100.5       100.5    
        100.5       100.5       100.5       100.5       100.5       100.5       100.5       100.5       100.5       100.4    
        100.4       100.4       100.4       100.4       100.4       100.4       100.3       100.3       100.2       100.1    
        100.0    
   5    100.0       99.74       99.58       99.46       99.37       99.29       99.22       99.16       99.10       99.04    
        98.99       98.93       98.88       98.83       98.78       98.74       98.70       98.66       98.62       98.59    
        98.56       98.54       98.52       98.51       98.51       98.51       98.52       98.54       98.56       98.58    
        98.62       98.66       98.70       98.75       98.80       98.85       98.91       98.96       99.03       99.09    
        99.15       99.21       99.27       99.33       99.40       99.46       99.51       99.57       99.63       99.68    
        99.74       99.79       99.84       99.89       99.93       99.98       100.0       100.1       100.1       100.1    
        100.2       100.2       100.2       100.3       100.3       100.3       100.3       100.4       100.4       100.4    
        100.4       100.4       100.5       100.5       100.5       100.5       100.5       100.5       100.5       100.5    
        100.5       100.5       100.5       100.5       100.5       100.5       100.5       100.5       100.5       100.5    
        100.5       100.5       100.5       100.5       100.4       100.4       100.4       100.3       100.3       100.2    
        100.0    
   6    100.0       99.71       99.53       99.40       99.29       99.20       99.12       99.05       98.98       98.91    
        98.85       98.79       98.73       98.67       98.61       98.56       98.51       98.46       98.42       98.38    
        98.35       98.33       98.31       98.30       98.29       98.29       98.30       98.32       98.35       98.38    
        98.42       98.46       98.51       98.56       98.62       98.68       98.75       98.82       98.89       98.96    
        99.03       99.10       99.17       99.24       99.31       99.38       99.45       99.51       99.58       99.64    
        99.70       99.76       99.81       99.87       99.92       99.97       100.0       100.1       100.1       100.1    
        100.2       100.2       100.3       100.3       100.3       100.4       100.4       100.4       100.4       100.5    
        100.5       100.5       100.5       100.5       100.5       100.6       100.6       100.6       100.6       100.6    
        100.6       100.6       100.6       100.6       100.6       100.6       100.6       100.6       100.6       100.6    
        100.6       100.5       100.5       100.5       100.5       100.5       100.4       100.4       100.3       100.2    
        100.0    
   7    100.0       99.69       99.49       99.34       99.22       99.12       99.03       98.95       98.87       98.80    
        98.73       98.66       98.59       98.52       98.46       98.40       98.34       98.29       98.24       98.19    
        98.16       98.13       98.11       98.09       98.08       98.09       98.10       98.12       98.15       98.18    
        98.23       98.28       98.33       98.39       98.46       98.53       98.60       98.68       98.76       98.84    
        98.92       99.00       99.08       99.16       99.23       99.31       99.38       99.46       99.53       99.60    
        99.66       99.73       99.79       99.85       99.91       99.96       100.0       100.1       100.1       100.2    
        100.2       100.2       100.3       100.3       100.4       100.4       100.4       100.4       100.5       100.5    
        100.5       100.5       100.6       100.6       100.6       100.6       100.6       100.6       100.6       100.6    
        100.6       100.7       100.7       100.7       100.7       100.7       100.6       100.6       100.6       100.6    
        100.6       100.6       100.6       100.6       100.5       100.5       100.4       100.4       100.3       100.2    
        100.0    
   8    100.0       99.67       99.45       99.29       99.16       99.05       98.95       98.86       98.77       98.69    
        98.61       98.53       98.45       98.38       98.31       98.24       98.17       98.11       98.06       98.01    
        97.97       97.93       97.91       97.89       97.88       97.89       97.90       97.92       97.95       97.99    
        98.04       98.10       98.16       98.23       98.30       98.38       98.47       98.55       98.64       98.72    
        98.81       98.90       98.99       99.07       99.16       99.24       99.32       99.40       99.48       99.56    
        99.63       99.70       99.77       99.83       99.89       99.95       100.0       100.1       100.1       100.2    
        100.2       100.3       100.3       100.3       100.4       100.4       100.4       100.5       100.5       100.5    
        100.6       100.6       100.6       100.6       100.6       100.6       100.7       100.7       100.7       100.7    
        100.7       100.7       100.7       100.7       100.7       100.7       100.7       100.7       100.7       100.7    
        100.6       100.6       100.6       100.6       100.6       100.5       100.5       100.4       100.3       100.2    
        100.0    
   9    100.0       99.64       99.41       99.24       99.10       98.98       98.87       98.77       98.68       98.59    
        98.50       98.41       98.33       98.24       98.16       98.09       98.01       97.94       97.88       97.83    
        97.78       97.74       97.71       97.69       97.68       97.68       97.70       97.72       97.76       97.80    
        97.86       97.92       97.99       98.07       98.15       98.24       98.33       98.42       98.52       98.61    
        98.71       98.81       98.90       99.00       99.09       99.18       99.27       99.35       99.44       99.52    
        99.60       99.67       99.74       99.81       99.88       99.94       100.0       100.1       100.1       100.2    
        100.2       100.3       100.3       100.4       100.4       100.4       100.5       100.5       100.5       100.6    
        100.6       100.6       100.6       100.6       100.7       100.7       100.7       100.7       100.7       100.7    
        100.7       100.7       100.7       100.7       100.7       100.7       100.7       100.7       100.7       100.7    
        100.7       100.7       100.6       100.6       100.6       100.5       100.5       100.4       100.3       100.2    
        100.0    
  10    100.0       99.62       99.37       99.19       99.04       98.91       98.80       98.69       98.59       98.49    
        98.39       98.29       98.20       98.11       98.02       97.93       97.85       97.78       97.71       97.64    
        97.59       97.54       97.51       97.49       97.48       97.48       97.49       97.52       97.56       97.61    
        97.67       97.74       97.82       97.90       98.00       98.09       98.19       98.30       98.40       98.51    
        98.61       98.72       98.82       98.92       99.02       99.12       99.21       99.31       99.40       99.48    
        99.56       99.64       99.72       99.80       99.87       99.93      100.00       100.1       100.1       100.2    
        100.2       100.3       100.3       100.4       100.4       100.4       100.5       100.5       100.6       100.6    
        100.6       100.6       100.7       100.7       100.7       100.7       100.7       100.7       100.7       100.8    
        100.8       100.8       100.8       100.8       100.8       100.8       100.8       100.8       100.7       100.7    
        100.7       100.7       100.7       100.6       100.6       100.6       100.5       100.4       100.3       100.2    
        100.0    
  11    100.0       99.60       99.34       99.15       98.99       98.85       98.73       98.61       98.50       98.39    
        98.28       98.18       98.08       97.97       97.88       97.78       97.69       97.61       97.53       97.46    
        97.39       97.34       97.30       97.28       97.27       97.27       97.28       97.31       97.36       97.41    
        97.48       97.56       97.64       97.74       97.84       97.95       98.06       98.17       98.28       98.40    
        98.51       98.63       98.74       98.85       98.96       99.06       99.16       99.26       99.35       99.45    
        99.53       99.62       99.70       99.78       99.85       99.92       99.99       100.1       100.1       100.2    
        100.2       100.3       100.3       100.4       100.4       100.5       100.5       100.5       100.6       100.6    
        100.6       100.7       100.7       100.7       100.7       100.7       100.8       100.8       100.8       100.8    
        100.8       100.8       100.8       100.8       100.8       100.8       100.8       100.8       100.8       100.8    
        100.7       100.7       100.7       100.7       100.6       100.6       100.5       100.5       100.4       100.2    
        100.0    
  12    100.0       99.58       99.31       99.10       98.93       98.79       98.66       98.53       98.41       98.29    
        98.18       98.06       97.95       97.84       97.73       97.63       97.53       97.43       97.34       97.27    
        97.20       97.14       97.09       97.06       97.05       97.05       97.07       97.10       97.15       97.21    
        97.28       97.37       97.47       97.57       97.68       97.80       97.92       98.04       98.17       98.29    
        98.42       98.54       98.66       98.78       98.89       99.00       99.11       99.21       99.32       99.41    
        99.51       99.60       99.68       99.76       99.84       99.92       99.99       100.1       100.1       100.2    
        100.2       100.3       100.3       100.4       100.4       100.5       100.5       100.6       100.6       100.6    
        100.7       100.7       100.7       100.7       100.8       100.8       100.8       100.8       100.8       100.8    
        100.8       100.8       100.8       100.8       100.8       100.8       100.8       100.8       100.8       100.8    
        100.8       100.7       100.7       100.7       100.6       100.6       100.5       100.5       100.4       100.2    
        100.0    
  13    100.0       99.56       99.27       99.06       98.88       98.73       98.59       98.45       98.33       98.20    
        98.08       97.95       97.83       97.71       97.59       97.48       97.36       97.26       97.16       97.07    
        96.99       96.93       96.88       96.84       96.82       96.82       96.84       96.88       96.93       97.00    
        97.08       97.18       97.29       97.40       97.53       97.65       97.79       97.92       98.05       98.19    
        98.32       98.45       98.58       98.71       98.83       98.95       99.06       99.17       99.28       99.38    
        99.48       99.57       99.66       99.75       99.83       99.91       99.98       100.1       100.1       100.2    
        100.2       100.3       100.4       100.4       100.5       100.5       100.5       100.6       100.6       100.6    
        100.7       100.7       100.7       100.8       100.8       100.8       100.8       100.8       100.8       100.8    
        100.9       100.9       100.9       100.9       100.9       100.9       100.8       100.8       100.8       100.8    
        100.8       100.8       100.7       100.7       100.7       100.6       100.6       100.5       100.4       100.2    
        100.0    
  14    100.0       99.54       99.24       99.02       98.83       98.67       98.52       98.38       98.24       98.11    
        97.97       97.84       97.71       97.58       97.45       97.32       97.20       97.08       96.97       96.87    
        96.78       96.71       96.65       96.61       96.59       96.59       96.61       96.65       96.71       96.78    
        96.88       96.98       97.10       97.23       97.37       97.51       97.65       97.79       97.94       98.08    
        98.23       98.37       98.51       98.64       98.77       98.89       99.01       99.13       99.24       99.35    
        99.45       99.55       99.64       99.73       99.82       99.90       99.98       100.1       100.1       100.2    
        100.2       100.3       100.4       100.4       100.5       100.5       100.6       100.6       100.6       100.7    
        100.7       100.7       100.8       100.8       100.8       100.8       100.8       100.8       100.9       100.9    
        100.9       100.9       100.9       100.9       100.9       100.9       100.9       100.9       100.8       100.8    
        100.8       100.8       100.8       100.7       100.7       100.6       100.6       100.5       100.4       100.2    
        100.0    
  15    100.0       99.53       99.21       98.98       98.78       98.61       98.46       98.31       98.16       98.02    
        97.88       97.73       97.59       97.45       97.31       97.17       97.03       96.90       96.78       96.67    
        96.57       96.49       96.42       96.37       96.35       96.35       96.37       96.41       96.48       96.56    
        96.67       96.79       96.92       97.06       97.20       97.36       97.51       97.67       97.83       97.98    
        98.14       98.29       98.43       98.57       98.71       98.84       98.97       99.09       99.21       99.32    
        99.43       99.53       99.63       99.72       99.81       99.89       99.97       100.1       100.1       100.2    
        100.3       100.3       100.4       100.4       100.5       100.5       100.6       100.6       100.6       100.7    
        100.7       100.7       100.8       100.8       100.8       100.8       100.9       100.9       100.9       100.9    
        100.9       100.9       100.9       100.9       100.9       100.9       100.9       100.9       100.9       100.8    
        100.8       100.8       100.8       100.7       100.7       100.6       100.6       100.5       100.4       100.2    
        100.0    
  16    100.0       99.51       99.18       98.94       98.74       98.56       98.40       98.24       98.09       97.93    
        97.78       97.63       97.48       97.32       97.17       97.02       96.87       96.73       96.59       96.47    
        96.35       96.26       96.19       96.13       96.10       96.10       96.12       96.17       96.25       96.34    
        96.45       96.59       96.73       96.88       97.04       97.21       97.38       97.55       97.72       97.89    
        98.05       98.21       98.36       98.51       98.66       98.79       98.93       99.06       99.18       99.29    
        99.41       99.51       99.61       99.71       99.80       99.89       99.97       100.1       100.1       100.2    
        100.3       100.3       100.4       100.4       100.5       100.5       100.6       100.6       100.7       100.7    
        100.7       100.8       100.8       100.8       100.8       100.9       100.9       100.9       100.9       100.9    
        100.9       100.9       100.9       100.9       100.9       100.9       100.9       100.9       100.9       100.9    
        100.8       100.8       100.8       100.8       100.7       100.7       100.6       100.5       100.4       100.2    
        100.0    
  17    100.0       99.49       99.16       98.90       98.70       98.51       98.34       98.17       98.01       97.85    
        97.69       97.53       97.36       97.20       97.03       96.87       96.71       96.55       96.40       96.26    
        96.14       96.03       95.95       95.89       95.86       95.85       95.88       95.93       96.01       96.11    
        96.24       96.38       96.54       96.71       96.89       97.07       97.25       97.43       97.61       97.79    
        97.96       98.13       98.30       98.45       98.60       98.75       98.89       99.02       99.15       99.27    
        99.39       99.50       99.60       99.70       99.80       99.89       99.97       100.1       100.1       100.2    
        100.3       100.3       100.4       100.4       100.5       100.6       100.6       100.6       100.7       100.7    
        100.8       100.8       100.8       100.8       100.9       100.9       100.9       100.9       100.9       100.9    
        100.9       100.9       100.9       100.9       100.9       100.9       100.9       100.9       100.9       100.9    
        100.9       100.8       100.8       100.8       100.7       100.7       100.6       100.5       100.4       100.3    
        100.0    
  18    100.0       99.48       99.13       98.87       98.66       98.46       98.29       98.11       97.94       97.78    
        97.61       97.43       97.26       97.08       96.90       96.73       96.55       96.38       96.21       96.06    
        95.92       95.81       95.71       95.64       95.61       95.60       95.63       95.69       95.77       95.89    
        96.03       96.19       96.36       96.54       96.74       96.93       97.13       97.32       97.51       97.70    
        97.89       98.06       98.24       98.40       98.56       98.71       98.85       98.99       99.12       99.25    
        99.37       99.48       99.59       99.69       99.79       99.88       99.97       100.1       100.1       100.2    
        100.3       100.3       100.4       100.5       100.5       100.6       100.6       100.7       100.7       100.7    
        100.8       100.8       100.8       100.9       100.9       100.9       100.9       100.9       100.9       101.0    
        101.0       101.0       101.0       101.0       101.0       101.0       100.9       100.9       100.9       100.9    
        100.9       100.9       100.8       100.8       100.7       100.7       100.6       100.5       100.4       100.3    
        100.0    
  19    100.0       99.47       99.11       98.84       98.62       98.42       98.24       98.06       97.88       97.71    
        97.53       97.34       97.16       96.97       96.78       96.59       96.40       96.21       96.04       95.87    
        95.72       95.59       95.48       95.40       95.36       95.35       95.38       95.45       95.54       95.67    
        95.82       96.00       96.19       96.38       96.59       96.80       97.01       97.22       97.42       97.62    
        97.81       98.00       98.18       98.35       98.52       98.67       98.82       98.97       99.10       99.23    
        99.36       99.47       99.58       99.69       99.79       99.88       99.97       100.1       100.1       100.2    
        100.3       100.4       100.4       100.5       100.5       100.6       100.6       100.7       100.7       100.8    
        100.8       100.8       100.9       100.9       100.9       100.9       100.9       101.0       101.0       101.0    
        101.0       101.0       101.0       101.0       101.0       101.0       101.0       101.0       100.9       100.9    
        100.9       100.9       100.8       100.8       100.8       100.7       100.6       100.5       100.4       100.3    
        100.0    
  20    100.0       99.45       99.09       98.82       98.59       98.38       98.19       98.01       97.83       97.64    
        97.46       97.27       97.07       96.87       96.67       96.47       96.26       96.06       95.87       95.69    
        95.52       95.38       95.26       95.17       95.13       95.12       95.15       95.22       95.32       95.46    
        95.63       95.82       96.02       96.24       96.46       96.68       96.90       97.12       97.34       97.55    
        97.75       97.95       98.13       98.31       98.48       98.64       98.80       98.95       99.09       99.22    
        99.35       99.47       99.58       99.69       99.79       99.89       99.98       100.1       100.1       100.2    
        100.3       100.4       100.4       100.5       100.5       100.6       100.6       100.7       100.7       100.8    
        100.8       100.8       100.9       100.9       100.9       100.9       101.0       101.0       101.0       101.0    
        101.0       101.0       101.0       101.0       101.0       101.0       101.0       101.0       101.0       100.9    
        100.9       100.9       100.8       100.8       100.8       100.7       100.6       100.5       100.4       100.3    
        100.0    
  21    100.0       99.44       99.07       98.79       98.56       98.35       98.16       97.97       97.78       97.59    
        97.39       97.20       96.99       96.78       96.57       96.35       96.14       95.92       95.72       95.52    
        95.34       95.18       95.05       94.96       94.91       94.90       94.93       95.01       95.12       95.27    
        95.45       95.65       95.87       96.10       96.34       96.57       96.81       97.04       97.27       97.49    
        97.70       97.90       98.09       98.28       98.45       98.62       98.78       98.93       99.07       99.21    
        99.34       99.46       99.58       99.69       99.79       99.89       99.98       100.1       100.2       100.2    
        100.3       100.4       100.4       100.5       100.6       100.6       100.7       100.7       100.7       100.8    
        100.8       100.9       100.9       100.9       100.9       101.0       101.0       101.0       101.0       101.0    
        101.0       101.0       101.0       101.0       101.0       101.0       101.0       101.0       101.0       101.0    
        100.9       100.9       100.9       100.8       100.8       100.7       100.6       100.6       100.4       100.3    
        100.0    
  22    100.0       99.44       99.06       98.78       98.54       98.33       98.13       97.93       97.74       97.54    
        97.34       97.14       96.93       96.71       96.49       96.26       96.03       95.81       95.59       95.38    
        95.18       95.01       94.87       94.77       94.71       94.70       94.74       94.82       94.94       95.11    
        95.30       95.51       95.75       95.99       96.24       96.49       96.73       96.97       97.21       97.43    
        97.65       97.86       98.06       98.25       98.43       98.60       98.76       98.92       99.07       99.20    
        99.34       99.46       99.58       99.69       99.80       99.90       99.99       100.1       100.2       100.2    
        100.3       100.4       100.5       100.5       100.6       100.6       100.7       100.7       100.8       100.8    
        100.8       100.9       100.9       100.9       101.0       101.0       101.0       101.0       101.0       101.0    
        101.0       101.0       101.0       101.0       101.0       101.0       101.0       101.0       101.0       101.0    
        100.9       100.9       100.9       100.8       100.8       100.7       100.7       100.6       100.4       100.3    
        100.0    
  23    100.0       99.43       99.05       98.76       98.52       98.31       98.11       97.91       97.71       97.51    
        97.30       97.09       96.88       96.65       96.42       96.19       95.95       95.71       95.48       95.26    
        95.05       94.87       94.73       94.62       94.55       94.54       94.58       94.66       94.80       94.97    
        95.17       95.40       95.64       95.90       96.16       96.42       96.67       96.92       97.16       97.40    
        97.62       97.83       98.04       98.23       98.42       98.59       98.76       98.91       99.06       99.20    
        99.34       99.46       99.58       99.70       99.80       99.90      100.00       100.1       100.2       100.3    
        100.3       100.4       100.5       100.5       100.6       100.6       100.7       100.7       100.8       100.8    
        100.9       100.9       100.9       100.9       101.0       101.0       101.0       101.0       101.0       101.0    
        101.1       101.1       101.1       101.1       101.1       101.0       101.0       101.0       101.0       101.0    
        101.0       100.9       100.9       100.8       100.8       100.7       100.7       100.6       100.4       100.3    
        100.0    
  24    100.0       99.43       99.05       98.76       98.51       98.30       98.09       97.89       97.69       97.49    
        97.28       97.06       96.84       96.61       96.37       96.13       95.89       95.64       95.40       95.17    
        94.96       94.77       94.62       94.50       94.43       94.42       94.46       94.55       94.69       94.87    
        95.08       95.32       95.57       95.83       96.10       96.37       96.63       96.89       97.13       97.37    
        97.60       97.82       98.03       98.22       98.41       98.59       98.76       98.92       99.07       99.21    
        99.34       99.47       99.59       99.71       99.81       99.92       100.0       100.1       100.2       100.3    
        100.3       100.4       100.5       100.5       100.6       100.7       100.7       100.8       100.8       100.8    
        100.9       100.9       100.9       101.0       101.0       101.0       101.0       101.0       101.1       101.1    
        101.1       101.1       101.1       101.1       101.1       101.1       101.1       101.0       101.0       101.0    
        101.0       100.9       100.9       100.9       100.8       100.7       100.7       100.6       100.5       100.3    
        100.0    
  25    100.0       99.43       99.04       98.75       98.51       98.29       98.08       97.88       97.68       97.48    
        97.27       97.05       96.82       96.59       96.35       96.10       95.86       95.61       95.36       95.13    
        94.91       94.71       94.55       94.43       94.37       94.35       94.39       94.48       94.63       94.81    
        95.03       95.27       95.53       95.80       96.07       96.34       96.61       96.87       97.12       97.36    
        97.60       97.82       98.03       98.22       98.41       98.59       98.76       98.92       99.07       99.22    
        99.35       99.48       99.60       99.72       99.83       99.93       100.0       100.1       100.2       100.3    
        100.4       100.4       100.5       100.6       100.6       100.7       100.7       100.8       100.8       100.9    
        100.9       100.9       101.0       101.0       101.0       101.0       101.0       101.1       101.1       101.1    
        101.1       101.1       101.1       101.1       101.1       101.1       101.1       101.0       101.0       101.0    
        101.0       101.0       100.9       100.9       100.8       100.8       100.7       100.6       100.5       100.3    
        100.0    
  26    100.0       99.43       99.05       98.76       98.51       98.29       98.09       97.89       97.68       97.48    
        97.27       97.05       96.82       96.59       96.35       96.10       95.85       95.60       95.35       95.12    
        94.90       94.70       94.54       94.42       94.35       94.33       94.37       94.47       94.61       94.80    
        95.02       95.27       95.53       95.80       96.07       96.35       96.61       96.88       97.13       97.37    
        97.60       97.83       98.04       98.24       98.43       98.61       98.78       98.94       99.09       99.23    
        99.37       99.50       99.62       99.73       99.84       99.95       100.0       100.1       100.2       100.3    
        100.4       100.5       100.5       100.6       100.6       100.7       100.7       100.8       100.8       100.9    
        100.9       100.9       101.0       101.0       101.0       101.0       101.1       101.1       101.1       101.1    
        101.1       101.1       101.1       101.1       101.1       101.1       101.1       101.1       101.0       101.0    
        101.0       101.0       100.9       100.9       100.8       100.8       100.7       100.6       100.5       100.3    
        100.0    
  27    100.0       99.43       99.05       98.76       98.52       98.30       98.10       97.90       97.70       97.49    
        97.28       97.07       96.84       96.61       96.37       96.12       95.88       95.63       95.38       95.15    
        94.93       94.74       94.58       94.46       94.39       94.37       94.42       94.51       94.65       94.84    
        95.06       95.30       95.56       95.83       96.10       96.37       96.64       96.90       97.15       97.40    
        97.63       97.85       98.06       98.26       98.45       98.63       98.80       98.96       99.11       99.25    
        99.39       99.52       99.64       99.75       99.86       99.97       100.1       100.2       100.2       100.3    
        100.4       100.5       100.5       100.6       100.7       100.7       100.8       100.8       100.9       100.9    
        100.9       101.0       101.0       101.0       101.0       101.1       101.1       101.1       101.1       101.1    
        101.1       101.1       101.1       101.1       101.1       101.1       101.1       101.1       101.1       101.0    
        101.0       101.0       100.9       100.9       100.8       100.8       100.7       100.6       100.5       100.3    
        100.0    
  28    100.0       99.44       99.06       98.78       98.54       98.32       98.12       97.92       97.72       97.52    
        97.31       97.10       96.88       96.65       96.41       96.17       95.93       95.69       95.45       95.22    
        95.01       94.82       94.66       94.55       94.48       94.47       94.51       94.60       94.74       94.92    
        95.13       95.37       95.63       95.89       96.16       96.43       96.69       96.95       97.20       97.43    
        97.66       97.88       98.09       98.29       98.48       98.65       98.82       98.98       99.13       99.28    
        99.41       99.54       99.66       99.78       99.89       99.99       100.1       100.2       100.3       100.3    
        100.4       100.5       100.6       100.6       100.7       100.7       100.8       100.8       100.9       100.9    
        101.0       101.0       101.0       101.0       101.1       101.1       101.1       101.1       101.1       101.1    
        101.1       101.1       101.1       101.1       101.1       101.1       101.1       101.1       101.1       101.0    
        101.0       101.0       100.9       100.9       100.8       100.8       100.7       100.6       100.5       100.3    
        100.0    
  29    100.0       99.44       99.07       98.79       98.56       98.35       98.15       97.95       97.76       97.56    
        97.36       97.15       96.93       96.71       96.48       96.25       96.01       95.77       95.54       95.32    
        95.12       94.94       94.80       94.69       94.63       94.61       94.65       94.74       94.88       95.05    
        95.25       95.48       95.73       95.98       96.24       96.50       96.76       97.01       97.25       97.49    
        97.71       97.93       98.13       98.33       98.52       98.69       98.86       99.02       99.17       99.31    
        99.44       99.57       99.69       99.80       99.91       100.0       100.1       100.2       100.3       100.4    
        100.4       100.5       100.6       100.6       100.7       100.8       100.8       100.9       100.9       100.9    
        101.0       101.0       101.0       101.1       101.1       101.1       101.1       101.1       101.1       101.2    
        101.2       101.2       101.2       101.2       101.1       101.1       101.1       101.1       101.1       101.1    
        101.0       101.0       101.0       100.9       100.9       100.8       100.7       100.6       100.5       100.3    
        100.0    
  30    100.0       99.46       99.09       98.82       98.58       98.38       98.18       97.99       97.80       97.61    
        97.41       97.21       97.00       96.78       96.56       96.34       96.11       95.89       95.67       95.46    
        95.27       95.11       94.97       94.87       94.81       94.80       94.84       94.92       95.05       95.21    
        95.41       95.62       95.86       96.10       96.35       96.60       96.85       97.09       97.33       97.56    
        97.78       97.99       98.19       98.38       98.56       98.74       98.90       99.06       99.20       99.34    
        99.48       99.60       99.72       99.83       99.94       100.0       100.1       100.2       100.3       100.4    
        100.5       100.5       100.6       100.7       100.7       100.8       100.8       100.9       100.9       101.0    
        101.0       101.0       101.1       101.1       101.1       101.1       101.1       101.1       101.2       101.2    
        101.2       101.2       101.2       101.2       101.2       101.2       101.1       101.1       101.1       101.1    
        101.0       101.0       101.0       100.9       100.9       100.8       100.7       100.6       100.5       100.3    
        100.0    
  31    100.0       99.47       99.11       98.84       98.62       98.42       98.23       98.04       97.86       97.67    
        97.48       97.28       97.08       96.88       96.67       96.45       96.24       96.03       95.82       95.63    
        95.45       95.30       95.17       95.08       95.03       95.02       95.06       95.13       95.25       95.41    
        95.59       95.79       96.01       96.25       96.48       96.72       96.96       97.19       97.42       97.64    
        97.85       98.06       98.25       98.44       98.62       98.79       98.95       99.10       99.25       99.38    
        99.51       99.64       99.75       99.87       99.97       100.1       100.2       100.3       100.3       100.4    
        100.5       100.6       100.6       100.7       100.7       100.8       100.8       100.9       100.9       101.0    
        101.0       101.0       101.1       101.1       101.1       101.1       101.2       101.2       101.2       101.2    
        101.2       101.2       101.2       101.2       101.2       101.2       101.1       101.1       101.1       101.1    
        101.1       101.0       101.0       100.9       100.9       100.8       100.7       100.6       100.5       100.3    
        100.0    
  32    100.0       99.48       99.14       98.87       98.66       98.46       98.28       98.10       97.92       97.74    
        97.56       97.37       97.18       96.98       96.79       96.59       96.38       96.19       96.00       95.82    
        95.65       95.51       95.40       95.32       95.27       95.27       95.30       95.37       95.48       95.62    
        95.79       95.98       96.19       96.41       96.63       96.86       97.08       97.30       97.52       97.73    
        97.94       98.14       98.32       98.51       98.68       98.84       99.00       99.15       99.29       99.43    
        99.56       99.68       99.79       99.90       100.0       100.1       100.2       100.3       100.4       100.4    
        100.5       100.6       100.7       100.7       100.8       100.8       100.9       100.9       101.0       101.0    
        101.0       101.1       101.1       101.1       101.1       101.2       101.2       101.2       101.2       101.2    
        101.2       101.2       101.2       101.2       101.2       101.2       101.2       101.1       101.1       101.1    
        101.1       101.0       101.0       100.9       100.9       100.8       100.7       100.6       100.5       100.3    
        100.0    
  33    100.0       99.50       99.16       98.91       98.70       98.51       98.33       98.16       97.99       97.82    
        97.64       97.47       97.29       97.10       96.92       96.73       96.54       96.36       96.19       96.02    
        95.87       95.75       95.64       95.57       95.53       95.53       95.56       95.63       95.73       95.86    
        96.01       96.19       96.38       96.58       96.79       97.00       97.22       97.43       97.64       97.84    
        98.03       98.22       98.40       98.58       98.75       98.91       99.06       99.20       99.34       99.48    
        99.60       99.72       99.83       99.94       100.0       100.1       100.2       100.3       100.4       100.5    
        100.5       100.6       100.7       100.7       100.8       100.8       100.9       100.9       101.0       101.0    
        101.1       101.1       101.1       101.1       101.2       101.2       101.2       101.2       101.2       101.2    
        101.2       101.2       101.2       101.2       101.2       101.2       101.2       101.2       101.1       101.1    
        101.1       101.0       101.0       100.9       100.9       100.8       100.7       100.6       100.5       100.3    
        100.0    
  34    100.0       99.52       99.19       98.95       98.75       98.56       98.39       98.23       98.07       97.90    
        97.74       97.57       97.40       97.23       97.06       96.88       96.71       96.54       96.38       96.24    
        96.10       95.99       95.90       95.83       95.80       95.80       95.83       95.89       95.98       96.10    
        96.25       96.41       96.58       96.77       96.97       97.16       97.36       97.56       97.76       97.95    
        98.14       98.32       98.49       98.66       98.82       98.98       99.12       99.26       99.40       99.53    
        99.65       99.77       99.88       99.98       100.1       100.2       100.3       100.3       100.4       100.5    
        100.6       100.6       100.7       100.8       100.8       100.9       100.9       101.0       101.0       101.0    
        101.1       101.1       101.1       101.2       101.2       101.2       101.2       101.2       101.2       101.2    
        101.2       101.2       101.2       101.2       101.2       101.2       101.2       101.2       101.1       101.1    
        101.1       101.1       101.0       101.0       100.9       100.8       100.7       100.6       100.5       100.3    
        100.0    
  35    100.0       99.54       99.23       98.99       98.80       98.62       98.46       98.30       98.15       98.00    
        97.84       97.68       97.53       97.37       97.20       97.04       96.89       96.74       96.59       96.46    
        96.34       96.24       96.16       96.10       96.07       96.07       96.10       96.16       96.24       96.35    
        96.48       96.63       96.79       96.97       97.15       97.33       97.52       97.70       97.89       98.07    
        98.25       98.42       98.58       98.74       98.90       99.05       99.19       99.33       99.46       99.58    
        99.70       99.81       99.92       100.0       100.1       100.2       100.3       100.4       100.5       100.5    
        100.6       100.7       100.7       100.8       100.8       100.9       100.9       101.0       101.0       101.1    
        101.1       101.1       101.1       101.2       101.2       101.2       101.2       101.2       101.2       101.2    
        101.3       101.3       101.2       101.2       101.2       101.2       101.2       101.2       101.2       101.1    
        101.1       101.1       101.0       101.0       100.9       100.8       100.8       100.6       100.5       100.3    
        100.0    
  36    100.0       99.56       99.26       99.04       98.85       98.68       98.53       98.38       98.24       98.09    
        97.95       97.80       97.65       97.51       97.36       97.21       97.07       96.93       96.80       96.68    
        96.57       96.49       96.42       96.37       96.34       96.35       96.37       96.43       96.50       96.60    
        96.72       96.86       97.00       97.16       97.33       97.50       97.67       97.85       98.02       98.19    
        98.36       98.52       98.68       98.83       98.98       99.13       99.26       99.39       99.52       99.64    
        99.76       99.87       99.97       100.1       100.2       100.3       100.3       100.4       100.5       100.6    
        100.6       100.7       100.8       100.8       100.9       100.9       101.0       101.0       101.0       101.1    
        101.1       101.1       101.2       101.2       101.2       101.2       101.2       101.3       101.3       101.3    
        101.3       101.3       101.3       101.3       101.2       101.2       101.2       101.2       101.2       101.1    
        101.1       101.1       101.0       101.0       100.9       100.8       100.8       100.7       100.5       100.3    
        100.0    
  37    100.0       99.58       99.30       99.08       98.91       98.75       98.60       98.47       98.33       98.19    
        98.06       97.92       97.79       97.65       97.51       97.38       97.25       97.13       97.01       96.90    
        96.81       96.73       96.67       96.63       96.61       96.61       96.64       96.69       96.76       96.85    
        96.96       97.08       97.22       97.36       97.52       97.67       97.83       98.00       98.16       98.32    
        98.48       98.63       98.78       98.93       99.07       99.21       99.34       99.46       99.59       99.70    
        99.81       99.92       100.0       100.1       100.2       100.3       100.4       100.5       100.5       100.6    
        100.7       100.7       100.8       100.8       100.9       100.9       101.0       101.0       101.1       101.1    
        101.1       101.2       101.2       101.2       101.2       101.2       101.3       101.3       101.3       101.3    
        101.3       101.3       101.3       101.3       101.3       101.2       101.2       101.2       101.2       101.2    
        101.1       101.1       101.0       101.0       100.9       100.9       100.8       100.7       100.5       100.3    
        100.0    
  38    100.0       99.60       99.33       99.13       98.96       98.82       98.68       98.55       98.42       98.30    
        98.17       98.04       97.92       97.79       97.67       97.55       97.43       97.32       97.22       97.12    
        97.04       96.97       96.92       96.89       96.87       96.88       96.90       96.95       97.01       97.09    
        97.19       97.30       97.43       97.56       97.70       97.85       98.00       98.15       98.30       98.45    
        98.60       98.74       98.89       99.02       99.16       99.29       99.42       99.54       99.65       99.77    
        99.87       99.98       100.1       100.2       100.3       100.3       100.4       100.5       100.6       100.6    
        100.7       100.8       100.8       100.9       100.9       101.0       101.0       101.1       101.1       101.1    
        101.2       101.2       101.2       101.2       101.2       101.3       101.3       101.3       101.3       101.3    
        101.3       101.3       101.3       101.3       101.3       101.3       101.2       101.2       101.2       101.2    
        101.1       101.1       101.0       101.0       100.9       100.9       100.8       100.7       100.5       100.3    
        100.0    
  39    100.0       99.62       99.37       99.18       99.03       98.89       98.76       98.64       98.52       98.40    
        98.28       98.17       98.05       97.94       97.83       97.72       97.61       97.51       97.42       97.34    
        97.27       97.21       97.16       97.13       97.12       97.13       97.15       97.20       97.25       97.33    
        97.42       97.52       97.64       97.76       97.89       98.02       98.16       98.30       98.44       98.58    
        98.72       98.86       98.99       99.12       99.25       99.37       99.49       99.61       99.72       99.83    
        99.93       100.0       100.1       100.2       100.3       100.4       100.5       100.5       100.6       100.7    
        100.7       100.8       100.9       100.9       101.0       101.0       101.0       101.1       101.1       101.2    
        101.2       101.2       101.2       101.3       101.3       101.3       101.3       101.3       101.3       101.3    
        101.3       101.3       101.3       101.3       101.3       101.3       101.2       101.2       101.2       101.2    
        101.1       101.1       101.1       101.0       100.9       100.9       100.8       100.7       100.5       100.3    
        100.0    
  40    100.0       99.65       99.41       99.23       99.09       98.96       98.84       98.72       98.61       98.51    
        98.40       98.29       98.19       98.08       97.98       97.89       97.79       97.70       97.62       97.55    
        97.49       97.43       97.40       97.37       97.36       97.37       97.40       97.43       97.49       97.56    
        97.64       97.73       97.84       97.95       98.07       98.19       98.32       98.45       98.58       98.71    
        98.84       98.97       99.10       99.22       99.34       99.46       99.58       99.69       99.79       99.90    
       100.00       100.1       100.2       100.3       100.4       100.4       100.5       100.6       100.6       100.7    
        100.8       100.8       100.9       100.9       101.0       101.0       101.1       101.1       101.1       101.2    
        101.2       101.2       101.3       101.3       101.3       101.3       101.3       101.3       101.3       101.3    
        101.3       101.3       101.3       101.3       101.3       101.3       101.3       101.2       101.2       101.2    
        101.1       101.1       101.1       101.0       100.9       100.9       100.8       100.7       100.5       100.3    
        100.0    
  41    100.0       99.67       99.45       99.28       99.15       99.03       98.92       98.81       98.71       98.61    
        98.51       98.42       98.32       98.23       98.14       98.05       97.96       97.89       97.81       97.75    
        97.70       97.65       97.62       97.60       97.60       97.60       97.63       97.66       97.71       97.78    
        97.85       97.94       98.03       98.14       98.25       98.36       98.48       98.60       98.72       98.84    
        98.96       99.08       99.20       99.32       99.44       99.55       99.66       99.76       99.86       99.96    
        100.1       100.2       100.2       100.3       100.4       100.5       100.6       100.6       100.7       100.8    
        100.8       100.9       100.9       101.0       101.0       101.1       101.1       101.1       101.2       101.2    
        101.2       101.2       101.3       101.3       101.3       101.3       101.3       101.3       101.3       101.3    
        101.3       101.3       101.3       101.3       101.3       101.3       101.3       101.2       101.2       101.2    
        101.2       101.1       101.1       101.0       101.0       100.9       100.8       100.7       100.5       100.3    
        100.0    
  42    100.0       99.69       99.49       99.34       99.21       99.10       99.00       98.90       98.81       98.72    
        98.63       98.54       98.45       98.37       98.29       98.21       98.13       98.06       98.00       97.95    
        97.90       97.86       97.83       97.82       97.82       97.83       97.85       97.88       97.93       97.99    
        98.06       98.14       98.22       98.32       98.42       98.52       98.63       98.74       98.86       98.97    
        99.08       99.20       99.31       99.42       99.53       99.64       99.74       99.84       99.94       100.0    
        100.1       100.2       100.3       100.4       100.5       100.5       100.6       100.7       100.7       100.8    
        100.8       100.9       101.0       101.0       101.0       101.1       101.1       101.2       101.2       101.2    
        101.2       101.3       101.3       101.3       101.3       101.3       101.3       101.4       101.4       101.4    
        101.4       101.4       101.3       101.3       101.3       101.3       101.3       101.3       101.2       101.2    
        101.2       101.1       101.1       101.0       101.0       100.9       100.8       100.7       100.5       100.3    
        100.0    
  43    100.0       99.72       99.53       99.39       99.27       99.17       99.08       98.99       98.90       98.82    
        98.74       98.66       98.58       98.51       98.43       98.36       98.30       98.24       98.18       98.13    
        98.09       98.06       98.04       98.03       98.03       98.04       98.06       98.09       98.13       98.19    
        98.25       98.32       98.40       98.49       98.58       98.68       98.78       98.89       98.99       99.10    
        99.20       99.31       99.42       99.52       99.62       99.72       99.82       99.92       100.0       100.1    
        100.2       100.3       100.4       100.4       100.5       100.6       100.6       100.7       100.8       100.8    
        100.9       100.9       101.0       101.0       101.1       101.1       101.2       101.2       101.2       101.2    
        101.3       101.3       101.3       101.3       101.3       101.4       101.4       101.4       101.4       101.4    
        101.4       101.4       101.4       101.3       101.3       101.3       101.3       101.3       101.2       101.2    
        101.2       101.1       101.1       101.0       101.0       100.9       100.8       100.7       100.5       100.3    
        100.0    
  44    100.0       99.74       99.57       99.44       99.33       99.24       99.16       99.07       99.00       98.92    
        98.85       98.78       98.71       98.64       98.57       98.51       98.45       98.40       98.35       98.31    
        98.28       98.25       98.23       98.22       98.22       98.24       98.26       98.29       98.33       98.38    
        98.44       98.51       98.58       98.66       98.74       98.83       98.93       99.02       99.12       99.22    
        99.32       99.42       99.52       99.62       99.71       99.81       99.90       99.99       100.1       100.2    
        100.3       100.3       100.4       100.5       100.6       100.6       100.7       100.8       100.8       100.9    
        100.9       101.0       101.0       101.1       101.1       101.1       101.2       101.2       101.2       101.3    
        101.3       101.3       101.3       101.3       101.4       101.4       101.4       101.4       101.4       101.4    
        101.4       101.4       101.4       101.4       101.3       101.3       101.3       101.3       101.3       101.2    
        101.2       101.1       101.1       101.0       101.0       100.9       100.8       100.7       100.5       100.3    
        100.0    
  45    100.0       99.77       99.61       99.49       99.40       99.31       99.23       99.16       99.09       99.02    
        98.96       98.89       98.83       98.77       98.71       98.66       98.60       98.56       98.52       98.48    
        98.45       98.43       98.42       98.41       98.41       98.43       98.45       98.48       98.52       98.56    
        98.62       98.68       98.75       98.82       98.90       98.98       99.07       99.16       99.25       99.34    
        99.44       99.53       99.62       99.71       99.81       99.90       99.98       100.1       100.2       100.2    
        100.3       100.4       100.5       100.5       100.6       100.7       100.7       100.8       100.9       100.9    
        101.0       101.0       101.0       101.1       101.1       101.2       101.2       101.2       101.3       101.3    
        101.3       101.3       101.4       101.4       101.4       101.4       101.4       101.4       101.4       101.4    
        101.4       101.4       101.4       101.4       101.4       101.3       101.3       101.3       101.3       101.2    
        101.2       101.1       101.1       101.0       101.0       100.9       100.8       100.7       100.5       100.3    
        100.0    
  46    100.0       99.79       99.65       99.54       99.46       99.38       99.31       99.24       99.18       99.12    
        99.06       99.00       98.95       98.89       98.84       98.79       98.75       98.71       98.67       98.64    
        98.62       98.60       98.59       98.59       98.59       98.61       98.63       98.65       98.69       98.74    
        98.79       98.84       98.91       98.98       99.05       99.13       99.21       99.29       99.37       99.46    
        99.55       99.64       99.72       99.81       99.90       99.98       100.1       100.1       100.2       100.3    
        100.4       100.5       100.5       100.6       100.7       100.7       100.8       100.8       100.9       100.9    
        101.0       101.0       101.1       101.1       101.2       101.2       101.2       101.3       101.3       101.3    
        101.3       101.4       101.4       101.4       101.4       101.4       101.4       101.4       101.4       101.4    
        101.4       101.4       101.4       101.4       101.4       101.3       101.3       101.3       101.3       101.2    
        101.2       101.2       101.1       101.1       101.0       100.9       100.8       100.7       100.5       100.3    
        100.0    
  47    100.0       99.81       99.69       99.59       99.51       99.45       99.38       99.32       99.27       99.21    
        99.16       99.11       99.06       99.01       98.97       98.93       98.89       98.85       98.82       98.80    
        98.78       98.76       98.76       98.76       98.76       98.78       98.80       98.82       98.86       98.90    
        98.95       99.00       99.06       99.12       99.19       99.26       99.34       99.42       99.49       99.58    
        99.66       99.74       99.82       99.90       99.98       100.1       100.1       100.2       100.3       100.4    
        100.4       100.5       100.6       100.6       100.7       100.8       100.8       100.9       100.9       101.0    
        101.0       101.1       101.1       101.2       101.2       101.2       101.3       101.3       101.3       101.3    
        101.4       101.4       101.4       101.4       101.4       101.4       101.4       101.4       101.4       101.4    
        101.4       101.4       101.4       101.4       101.4       101.4       101.3       101.3       101.3       101.2    
        101.2       101.2       101.1       101.1       101.0       100.9       100.8       100.7       100.6       100.3    
        100.0    
  48    100.0       99.84       99.72       99.64       99.57       99.51       99.46       99.40       99.35       99.31    
        99.26       99.21       99.17       99.13       99.09       99.06       99.02       98.99       98.97       98.95    
        98.93       98.92       98.91       98.92       98.92       98.94       98.96       98.98       99.02       99.06    
        99.10       99.15       99.20       99.26       99.33       99.39       99.46       99.54       99.61       99.69    
        99.76       99.84       99.92       99.99       100.1       100.1       100.2       100.3       100.4       100.4    
        100.5       100.6       100.6       100.7       100.8       100.8       100.9       100.9       101.0       101.0    
        101.1       101.1       101.1       101.2       101.2       101.3       101.3       101.3       101.3       101.4    
        101.4       101.4       101.4       101.4       101.4       101.4       101.4       101.4       101.4       101.4    
        101.4       101.4       101.4       101.4       101.4       101.4       101.3       101.3       101.3       101.3    
        101.2       101.2       101.1       101.1       101.0       100.9       100.8       100.7       100.6       100.3    
        100.0    
  49    100.0       99.86       99.76       99.69       99.63       99.58       99.53       99.48       99.44       99.40    
        99.35       99.32       99.28       99.24       99.21       99.18       99.15       99.12       99.10       99.09    
        99.07       99.07       99.06       99.07       99.07       99.09       99.11       99.13       99.17       99.20    
        99.25       99.29       99.34       99.40       99.46       99.52       99.59       99.65       99.72       99.79    
        99.86       99.94       100.0       100.1       100.2       100.2       100.3       100.4       100.4       100.5    
        100.6       100.6       100.7       100.7       100.8       100.9       100.9       101.0       101.0       101.1    
        101.1       101.1       101.2       101.2       101.2       101.3       101.3       101.3       101.4       101.4    
        101.4       101.4       101.4       101.4       101.4       101.5       101.5       101.5       101.5       101.5    
        101.4       101.4       101.4       101.4       101.4       101.4       101.4       101.3       101.3       101.3    
        101.2       101.2       101.1       101.1       101.0       100.9       100.8       100.7       100.6       100.3    
        100.0    
  50    100.0       99.88       99.80       99.74       99.68       99.64       99.60       99.56       99.52       99.48    
        99.45       99.41       99.38       99.35       99.32       99.29       99.27       99.25       99.23       99.22    
        99.21       99.20       99.20       99.21       99.22       99.23       99.25       99.28       99.31       99.34    
        99.38       99.43       99.48       99.53       99.58       99.64       99.70       99.77       99.83       99.90    
        99.96       100.0       100.1       100.2       100.2       100.3       100.4       100.4       100.5       100.6    
        100.6       100.7       100.7       100.8       100.9       100.9       101.0       101.0       101.0       101.1    
        101.1       101.2       101.2       101.2       101.3       101.3       101.3       101.4       101.4       101.4    
        101.4       101.4       101.4       101.5       101.5       101.5       101.5       101.5       101.5       101.5    
        101.5       101.5       101.4       101.4       101.4       101.4       101.4       101.3       101.3       101.3    
        101.2       101.2       101.1       101.1       101.0       100.9       100.8       100.7       100.6       100.3    
        100.0    
  51    100.0       99.90       99.83       99.78       99.74       99.70       99.66       99.63       99.60       99.56    
        99.53       99.51       99.48       99.45       99.43       99.41       99.39       99.37       99.36       99.35    
        99.34       99.34       99.34       99.34       99.35       99.37       99.39       99.41       99.44       99.48    
        99.51       99.56       99.60       99.65       99.70       99.76       99.81       99.87       99.93      100.00    
        100.1       100.1       100.2       100.3       100.3       100.4       100.4       100.5       100.6       100.6    
        100.7       100.7       100.8       100.8       100.9       100.9       101.0       101.0       101.1       101.1    
        101.2       101.2       101.2       101.3       101.3       101.3       101.4       101.4       101.4       101.4    
        101.4       101.5       101.5       101.5       101.5       101.5       101.5       101.5       101.5       101.5    
        101.5       101.5       101.4       101.4       101.4       101.4       101.4       101.3       101.3       101.3    
        101.2       101.2       101.1       101.1       101.0       100.9       100.8       100.7       100.6       100.3    
        100.0    
  52    100.0       99.92       99.87       99.82       99.79       99.76       99.73       99.70       99.67       99.64    
        99.62       99.60       99.57       99.55       99.53       99.51       99.50       99.48       99.47       99.47    
        99.46       99.46       99.46       99.47       99.48       99.50       99.52       99.54       99.57       99.60    
        99.64       99.68       99.72       99.77       99.81       99.87       99.92       99.98       100.0       100.1    
        100.2       100.2       100.3       100.3       100.4       100.5       100.5       100.6       100.6       100.7    
        100.7       100.8       100.8       100.9       100.9       101.0       101.0       101.1       101.1       101.2    
        101.2       101.2       101.3       101.3       101.3       101.4       101.4       101.4       101.4       101.4    
        101.5       101.5       101.5       101.5       101.5       101.5       101.5       101.5       101.5       101.5    
        101.5       101.5       101.5       101.4       101.4       101.4       101.4       101.3       101.3       101.3    
        101.2       101.2       101.1       101.1       101.0       100.9       100.8       100.7       100.6       100.3    
        100.0    
  53    100.0       99.94       99.90       99.87       99.84       99.81       99.79       99.77       99.74       99.72    
        99.70       99.68       99.66       99.64       99.63       99.61       99.60       99.59       99.58       99.58    
        99.58       99.58       99.58       99.59       99.60       99.62       99.64       99.66       99.69       99.72    
        99.75       99.79       99.83       99.88       99.92       99.97       100.0       100.1       100.1       100.2    
        100.2       100.3       100.4       100.4       100.5       100.5       100.6       100.6       100.7       100.7    
        100.8       100.8       100.9       100.9       101.0       101.0       101.1       101.1       101.2       101.2    
        101.2       101.3       101.3       101.3       101.4       101.4       101.4       101.4       101.4       101.5    
        101.5       101.5       101.5       101.5       101.5       101.5       101.5       101.5       101.5       101.5    
        101.5       101.5       101.5       101.5       101.4       101.4       101.4       101.4       101.3       101.3    
        101.2       101.2       101.1       101.1       101.0       100.9       100.8       100.7       100.6       100.3    
        100.0    
  54    100.0       99.96       99.93       99.91       99.89       99.87       99.85       99.83       99.81       99.80    
        99.78       99.76       99.75       99.73       99.72       99.71       99.70       99.69       99.69       99.69    
[...]
        101.2       101.2       101.2       101.2       101.2       101.2       101.2       101.2       101.2       101.2    
        101.2       101.2       101.2       101.2       101.2       101.2       101.2       101.2       101.2       101.2    
        101.2       101.2       101.2       101.2       101.2       101.2       101.1       101.1       101.1       101.1    
        101.1       101.1       101.1       101.0       101.0       101.0       101.0       101.0       100.9       100.9    
        100.9       100.9       100.8       100.8       100.8       100.8       100.8       100.8       100.7       100.7    
        100.7    
  89    100.5       100.5       100.5       100.5       100.5       100.5       100.5       100.6       100.6       100.6    
        100.6       100.6       100.7       100.7       100.7       100.7       100.7       100.7       100.8       100.8    
        100.8       100.8       100.8       100.8       100.8       100.9       100.9       100.9       100.9       100.9    
        100.9       100.9       101.0       101.0       101.0       101.0       101.0       101.0       101.0       101.0    
        101.0       101.1       101.1       101.1       101.1       101.1       101.1       101.1       101.1       101.1    
        101.1       101.1       101.1       101.2       101.2       101.2       101.2       101.2       101.2       101.2    
        101.2       101.2       101.2       101.2       101.2       101.2       101.2       101.2       101.2       101.2    
        101.2       101.2       101.2       101.1       101.1       101.1       101.1       101.1       101.1       101.1    
        101.1       101.1       101.0       101.0       101.0       101.0       101.0       100.9       100.9       100.9    
        100.9       100.9       100.8       100.8       100.8       100.8       100.8       100.7       100.7       100.7    
        100.7    
  90    100.5       100.5       100.5       100.5       100.5       100.5       100.5       100.6       100.6       100.6    
        100.6       100.6       100.6       100.7       100.7       100.7       100.7       100.7       100.7       100.8    
        100.8       100.8       100.8       100.8       100.8       100.8       100.9       100.9       100.9       100.9    
        100.9       100.9       100.9       100.9       101.0       101.0       101.0       101.0       101.0       101.0    
        101.0       101.0       101.0       101.1       101.1       101.1       101.1       101.1       101.1       101.1    
        101.1       101.1       101.1       101.1       101.1       101.1       101.1       101.1       101.1       101.2    
        101.2       101.2       101.2       101.2       101.2       101.2       101.2       101.1       101.1       101.1    
        101.1       101.1       101.1       101.1       101.1       101.1       101.1       101.1       101.1       101.1    
        101.0       101.0       101.0       101.0       101.0       101.0       100.9       100.9       100.9       100.9    
        100.9       100.8       100.8       100.8       100.8       100.8       100.7       100.7       100.7       100.7    
        100.7    
  91    100.5       100.5       100.5       100.5       100.5       100.5       100.5       100.6       100.6       100.6    
        100.6       100.6       100.6       100.7       100.7       100.7       100.7       100.7       100.7       100.7    
        100.8       100.8       100.8       100.8       100.8       100.8       100.8       100.9       100.9       100.9    
        100.9       100.9       100.9       100.9       100.9       101.0       101.0       101.0       101.0       101.0    
        101.0       101.0       101.0       101.0       101.0       101.0       101.1       101.1       101.1       101.1    
        101.1       101.1       101.1       101.1       101.1       101.1       101.1       101.1       101.1       101.1    
        101.1       101.1       101.1       101.1       101.1       101.1       101.1       101.1       101.1       101.1    
        101.1       101.1       101.1       101.1       101.1       101.1       101.1       101.1       101.0       101.0    
        101.0       101.0       101.0       101.0       101.0       100.9       100.9       100.9       100.9       100.9    
        100.8       100.8       100.8       100.8       100.8       100.7       100.7       100.7       100.7       100.7    
        100.7    
  92    100.5       100.5       100.5       100.5       100.5       100.5       100.5       100.5       100.6       100.6    
        100.6       100.6       100.6       100.6       100.7       100.7       100.7       100.7       100.7       100.7    
        100.8       100.8       100.8       100.8       100.8       100.8       100.8       100.8       100.9       100.9    
        100.9       100.9       100.9       100.9       100.9       100.9       100.9       101.0       101.0       101.0    
        101.0       101.0       101.0       101.0       101.0       101.0       101.0       101.0       101.0       101.1    
        101.1       101.1       101.1       101.1       101.1       101.1       101.1       101.1       101.1       101.1    
        101.1       101.1       101.1       101.1       101.1       101.1       101.1       101.1       101.1       101.1    
        101.1       101.1       101.1       101.1       101.1       101.0       101.0       101.0       101.0       101.0    
        101.0       101.0       101.0       100.9       100.9       100.9       100.9       100.9       100.9       100.8    
        100.8       100.8       100.8       100.8       100.7       100.7       100.7       100.7       100.7       100.7    
        100.7    
  93    100.5       100.5       100.5       100.5       100.5       100.5       100.5       100.5       100.6       100.6    
        100.6       100.6       100.6       100.6       100.6       100.7       100.7       100.7       100.7       100.7    
        100.7       100.7       100.8       100.8       100.8       100.8       100.8       100.8       100.8       100.8    
        100.9       100.9       100.9       100.9       100.9       100.9       100.9       100.9       100.9       100.9    
        101.0       101.0       101.0       101.0       101.0       101.0       101.0       101.0       101.0       101.0    
        101.0       101.0       101.0       101.0       101.1       101.1       101.1       101.1       101.1       101.1    
        101.1       101.1       101.1       101.1       101.1       101.1       101.1       101.1       101.1       101.1    
        101.1       101.0       101.0       101.0       101.0       101.0       101.0       101.0       101.0       101.0    
        101.0       100.9       100.9       100.9       100.9       100.9       100.9       100.8       100.8       100.8    
        100.8       100.8       100.8       100.7       100.7       100.7       100.7       100.7       100.7       100.7    
        100.7    
  94    100.5       100.5       100.5       100.5       100.5       100.5       100.5       100.5       100.5       100.6    
        100.6       100.6       100.6       100.6       100.6       100.6       100.7       100.7       100.7       100.7    
        100.7       100.7       100.7       100.8       100.8       100.8       100.8       100.8       100.8       100.8    
        100.8       100.9       100.9       100.9       100.9       100.9       100.9       100.9       100.9       100.9    
        100.9       100.9       101.0       101.0       101.0       101.0       101.0       101.0       101.0       101.0    
        101.0       101.0       101.0       101.0       101.0       101.0       101.0       101.0       101.0       101.0    
        101.0       101.0       101.0       101.0       101.0       101.0       101.0       101.0       101.0       101.0    
        101.0       101.0       101.0       101.0       101.0       101.0       101.0       101.0       101.0       100.9    
        100.9       100.9       100.9       100.9       100.9       100.9       100.8       100.8       100.8       100.8    
        100.8       100.8       100.7       100.7       100.7       100.7       100.7       100.7       100.6       100.6    
        100.6    
  95    100.5       100.5       100.5       100.5       100.5       100.5       100.5       100.5       100.5       100.5    
        100.6       100.6       100.6       100.6       100.6       100.6       100.7       100.7       100.7       100.7    
        100.7       100.7       100.7       100.7       100.8       100.8       100.8       100.8       100.8       100.8    
        100.8       100.8       100.8       100.9       100.9       100.9       100.9       100.9       100.9       100.9    
        100.9       100.9       100.9       100.9       100.9       101.0       101.0       101.0       101.0       101.0    
        101.0       101.0       101.0       101.0       101.0       101.0       101.0       101.0       101.0       101.0    
        101.0       101.0       101.0       101.0       101.0       101.0       101.0       101.0       101.0       101.0    
        101.0       101.0       101.0       101.0       101.0       101.0       101.0       100.9       100.9       100.9    
        100.9       100.9       100.9       100.9       100.9       100.8       100.8       100.8       100.8       100.8    
        100.8       100.7       100.7       100.7       100.7       100.7       100.7       100.6       100.6       100.6    
        100.6    
  96    100.4       100.5       100.5       100.5       100.5       100.5       100.5       100.5       100.5       100.5    
        100.6       100.6       100.6       100.6       100.6       100.6       100.6       100.7       100.7       100.7    
        100.7       100.7       100.7       100.7       100.7       100.8       100.8       100.8       100.8       100.8    
        100.8       100.8       100.8       100.8       100.8       100.9       100.9       100.9       100.9       100.9    
        100.9       100.9       100.9       100.9       100.9       100.9       100.9       100.9       100.9       101.0    
        101.0       101.0       101.0       101.0       101.0       101.0       101.0       101.0       101.0       101.0    
        101.0       101.0       101.0       101.0       101.0       101.0       101.0       101.0       101.0       101.0    
        101.0       101.0       101.0       101.0       100.9       100.9       100.9       100.9       100.9       100.9    
        100.9       100.9       100.9       100.8       100.8       100.8       100.8       100.8       100.8       100.8    
        100.7       100.7       100.7       100.7       100.7       100.7       100.6       100.6       100.6       100.6    
        100.6    
  97    100.4       100.4       100.4       100.5       100.5       100.5       100.5       100.5       100.5       100.5    
        100.5       100.6       100.6       100.6       100.6       100.6       100.6       100.6       100.7       100.7    
        100.7       100.7       100.7       100.7       100.7       100.7       100.7       100.8       100.8       100.8    
        100.8       100.8       100.8       100.8       100.8       100.8       100.8       100.9       100.9       100.9    
        100.9       100.9       100.9       100.9       100.9       100.9       100.9       100.9       100.9       100.9    
        100.9       100.9       100.9       101.0       101.0       101.0       101.0       101.0       101.0       101.0    
        101.0       101.0       101.0       101.0       101.0       101.0       101.0       101.0       101.0       101.0    
        100.9       100.9       100.9       100.9       100.9       100.9       100.9       100.9       100.9       100.9    
        100.9       100.9       100.8       100.8       100.8       100.8       100.8       100.8       100.8       100.7    
        100.7       100.7       100.7       100.7       100.7       100.6       100.6       100.6       100.6       100.6    
        100.6    
  98    100.4       100.4       100.4       100.5       100.5       100.5       100.5       100.5       100.5       100.5    
        100.5       100.5       100.6       100.6       100.6       100.6       100.6       100.6       100.6       100.7    
        100.7       100.7       100.7       100.7       100.7       100.7       100.7       100.7       100.8       100.8    
        100.8       100.8       100.8       100.8       100.8       100.8       100.8       100.8       100.8       100.9    
        100.9       100.9       100.9       100.9       100.9       100.9       100.9       100.9       100.9       100.9    
        100.9       100.9       100.9       100.9       100.9       100.9       100.9       100.9       100.9       100.9    
        100.9       100.9       100.9       100.9       100.9       100.9       100.9       100.9       100.9       100.9    
        100.9       100.9       100.9       100.9       100.9       100.9       100.9       100.9       100.9       100.9    
        100.8       100.8       100.8       100.8       100.8       100.8       100.8       100.8       100.7       100.7    
        100.7       100.7       100.7       100.7       100.6       100.6       100.6       100.6       100.6       100.6    
        100.6    
  99    100.4       100.4       100.4       100.4       100.5       100.5       100.5       100.5       100.5       100.5    
        100.5       100.5       100.6       100.6       100.6       100.6       100.6       100.6       100.6       100.6    
        100.7       100.7       100.7       100.7       100.7       100.7       100.7       100.7       100.7       100.8    
        100.8       100.8       100.8       100.8       100.8       100.8       100.8       100.8       100.8       100.8    
        100.8       100.9       100.9       100.9       100.9       100.9       100.9       100.9       100.9       100.9    
        100.9       100.9       100.9       100.9       100.9       100.9       100.9       100.9       100.9       100.9    
        100.9       100.9       100.9       100.9       100.9       100.9       100.9       100.9       100.9       100.9    
        100.9       100.9       100.9       100.9       100.9       100.9       100.9       100.9       100.9       100.8    
        100.8       100.8       100.8       100.8       100.8       100.8       100.8       100.7       100.7       100.7    
        100.7       100.7       100.7       100.6       100.6       100.6       100.6       100.6       100.6       100.6    
        100.6    
 100    100.4       100.4       100.4       100.4       100.5       100.5       100.5       100.5       100.5       100.5    
        100.5       100.5       100.5       100.6       100.6       100.6       100.6       100.6       100.6       100.6    
        100.7       100.7       100.7       100.7       100.7       100.7       100.7       100.7       100.7       100.7    
        100.8       100.8       100.8       100.8       100.8       100.8       100.8       100.8       100.8       100.8    
        100.8       100.8       100.9       100.9       100.9       100.9       100.9       100.9       100.9       100.9    
        100.9       100.9       100.9       100.9       100.9       100.9       100.9       100.9       100.9       100.9    
        100.9       100.9       100.9       100.9       100.9       100.9       100.9       100.9       100.9       100.9    
        100.9       100.9       100.9       100.9       100.9       100.9       100.9       100.9       100.8       100.8    
        100.8       100.8       100.8       100.8       100.8       100.8       100.7       100.7       100.7       100.7    
        100.7       100.7       100.7       100.6       100.6       100.6       100.6       100.6       100.6       100.6    
        100.6    
 101    100.4       100.4       100.4       100.4       100.4       100.5       100.5       100.5       100.5       100.5    
        100.5       100.5       100.5       100.6       100.6       100.6       100.6       100.6       100.6       100.6    
        100.6       100.7       100.7       100.7       100.7       100.7       100.7       100.7       100.7       100.7    
        100.8       100.8       100.8       100.8       100.8       100.8       100.8       100.8       100.8       100.8    
        100.8       100.8       100.8       100.9       100.9       100.9       100.9       100.9       100.9       100.9    
        100.9       100.9       100.9       100.9       100.9       100.9       100.9       100.9       100.9       100.9    
        100.9       100.9       100.9       100.9       100.9       100.9       100.9       100.9       100.9       100.9    
        100.9       100.9       100.9       100.9       100.9       100.9       100.9       100.9       100.8       100.8    
        100.8       100.8       100.8       100.8       100.8       100.8       100.7       100.7       100.7       100.7    
        100.7       100.7       100.7       100.6       100.6       100.6       100.6       100.6       100.6       100.6    
        100.6    

 HEAD WILL BE SAVED ON UNIT 1016 AT END OF TIME STEP    1, STRESS PERIOD    1


  VOLUME BUDGET FOR ENTIRE MODEL AT END OF TIME STEP    1, STRESS PERIOD   1
  ---------------------------------------------------------------------------------------------------

     CUMULATIVE VOLUME      L**3       RATES FOR THIS TIME STEP      L**3/T          PACKAGE NAME    
     ------------------                 ------------------------                     ----------------

           IN:                                      IN:
           ---                                      ---
              STO-SS =          50.4372                STO-SS =          50.4372     STORAGE                          
              STO-SY =           0.0000                STO-SY =           0.0000     STORAGE                          
                 WEL =           0.0000                   WEL =           0.0000     WEL_0                            
                RCHA =        1529.6052                  RCHA =        1529.6052     RCH                              
                 CHD =         369.4088                   CHD =         369.4088     CHD_0                            

            TOTAL IN =        1949.4512              TOTAL IN =        1949.4512

          OUT:                                     OUT:
          ----                                     ----
              STO-SS =          49.7638                STO-SS =          49.7638     STORAGE                          
              STO-SY =           0.0000                STO-SY =           0.0000     STORAGE                          
                 WEL =        1295.0807                   WEL =        1295.0807     WEL_0                            
                RCHA =           0.0000                  RCHA =           0.0000     RCH                              
                 CHD =         603.5999                   CHD =         603.5999     CHD_0                            

           TOTAL OUT =        1948.4443             TOTAL OUT =        1948.4443

            IN - OUT =           1.0068              IN - OUT =           1.0068

 PERCENT DISCREPANCY =           0.05     PERCENT DISCREPANCY =           0.05




         TIME SUMMARY AT END OF TIME STEP    1 IN STRESS PERIOD    1
                    SECONDS     MINUTES      HOURS       DAYS        YEARS
                    -----------------------------------------------------------
   TIME STEP LENGTH  86400.      1440.0      24.000      1.0000     2.73785E-03
 STRESS PERIOD TIME  86400.      1440.0      24.000      1.0000     2.73785E-03
         TOTAL TIME  86400.      1440.0      24.000      1.0000     2.73785E-03


end timestep

