                                   MODFLOW 6
                U.S. GEOLOGICAL SURVEY MODULAR HYDROLOGIC MODEL
                          GROUNDWATER FLOW MODEL (GWF)
                        VERSION 6.4.1 Release 12/09/2022

   MODFLOW 6 compiled Dec 09 2022 18:18:37 with Intel(R) Fortran Intel(R) 64
   Compiler Classic for applications running on Intel(R) 64, Version 2021.7.0
                             Build 20220726_000000

This software has been approved for release by the U.S. Geological 
Survey (USGS). Although the software has been subjected to rigorous 
review, the USGS reserves the right to update the software as needed 
pursuant to further analysis and review. No warranty, expressed or 
implied, is made by the USGS or the U.S. Government as to the 
functionality of the software and related material nor shall the 
fact of release constitute any such warranty. Furthermore, the 
software is released on condition that neither the USGS nor the U.S. 
Government shall be held liable for any damages resulting from its 
authorized or unauthorized use. Also refer to the USGS Water 
Resources Software User Rights Notice for complete use, copyright, 
and distribution information.


As a work of the United States Government, this USGS product is 
in the public domain within the United States. You can copy, 
modify, distribute, and perform the work, even for commercial 
purposes, all without asking permission. Additionally, USGS 
waives copyright and related rights in the work worldwide 
through CC0 1.0 Universal Public Domain Dedication 
(https://creativecommons.org/publicdomain/zero/1.0/).

The following GNU Lesser General Public License (LGPL) libraries
are used in this USGS product:

    SPARSKIT version 2.0
      ilut, luson, and qsplit 
      (https://www-users.cse.umn.edu/~saad/software/SPARSKIT/)

    RCM - Reverse Cuthill McKee Ordering
      (https://people.math.sc.edu/Burkardt/f_src/rcm/rcm.html)

    BLAS - Basic Linear Algebra Subprograms Level 1
      (https://people.math.sc.edu/Burkardt/f_src/blas1_d/blas1_d.html)

    SPARSEKIT - Sparse Matrix Utility Package
      amux, dperm, dvperm, rperm, and cperm
      (https://people.sc.fsu.edu/~jburkardt/f77_src/sparsekit/sparsekit.html)

The following BSD-3 License libraries are used in this USGS product:

    Modern Fortran DAG Library
      Copyright (c) 2018, Jacob Williams
      All rights reserved.
      (https://github.com/jacobwilliams/daglib)

MODFLOW 6 compiler options: /Isrc\libmf6core.a.p /Isrc /I..\src
/Isrc\libmf6_external.a.p /MTd /nologo /warn:general /warn:truncated_source
/stand:f08 /Zi /traceback /O2 /fpe:0 /heap-arrays:0 /traceback /fpp
/Qdiag-disable:7416 /Qdiag-disable:7025 /Qdiag-disable:5268
/Fdsrc\libmf6core.a.p\Utilities_compilerversion.F90.pdb
/module:src\libmf6core.a.p
/Fosrc/libmf6core.a.p/Utilities_compilerversion.F90.obj /c

System command used to initiate simulation:
"C:\Users\ksil8584\OneDrive - The University of Sydney (Staff)\Documents\Modflow\mf6.4.1\bin\mf6.exe"

MODFLOW was compiled using uniform precision.

Real Variables
  KIND: 8
  TINY (smallest non-zero value):    2.225074-308
  HUGE (largest value):    1.797693+308
  PRECISION: 15
  SIZE IN BITS: 64

Integer Variables
  KIND: 4
  HUGE (largest value): 2147483647
  SIZE IN BITS: 32

Long Integer Variables
  KIND: 8
  HUGE (largest value): 9223372036854775807
  SIZE IN BITS: 64

Logical Variables
  KIND: 4
  SIZE IN BITS: 32
 

 OPENED FloPy_ModelS_T1b.dis
 FILE TYPE:DIS6                   UNIT 1005   STATUS:OLD                 
 FORMAT:FORMATTED              ACCESS:SEQUENTIAL          
 ACTION:READ                


 OPENED FloPy_ModelS_T1b.ic
 FILE TYPE:IC6                    UNIT 1006   STATUS:OLD                 
 FORMAT:FORMATTED              ACCESS:SEQUENTIAL          
 ACTION:READ                


 OPENED FloPy_ModelS_T1b.npf
 FILE TYPE:NPF6                   UNIT 1007   STATUS:OLD                 
 FORMAT:FORMATTED              ACCESS:SEQUENTIAL          
 ACTION:READ                


 OPENED FloPy_ModelS_T1b.sto
 FILE TYPE:STO6                   UNIT 1008   STATUS:OLD                 
 FORMAT:FORMATTED              ACCESS:SEQUENTIAL          
 ACTION:READ                


 OPENED FloPy_ModelS_T1b.chd
 FILE TYPE:CHD6                   UNIT 1009   STATUS:OLD                 
 FORMAT:FORMATTED              ACCESS:SEQUENTIAL          
 ACTION:READ                


 OPENED FloPy_ModelS_T1b.oc
 FILE TYPE:OC6                    UNIT 1010   STATUS:OLD                 
 FORMAT:FORMATTED              ACCESS:SEQUENTIAL          
 ACTION:READ                


 OPENED FloPy_ModelS_T1b.wel
 FILE TYPE:WEL6                   UNIT 1011   STATUS:OLD                 
 FORMAT:FORMATTED              ACCESS:SEQUENTIAL          
 ACTION:READ                


 OPENED FloPy_ModelS_T1b.rcha
 FILE TYPE:RCH6                   UNIT 1012   STATUS:OLD                 
 FORMAT:FORMATTED              ACCESS:SEQUENTIAL          
 ACTION:READ                

 NAMEFILE OPTIONS:
    FLOWS WILL BE SAVED TO BUDGET FILE SPECIFIED IN OUTPUT CONTROL
    NEWTON-RAPHSON method enabled for the model.
    NEWTON-RAPHSON UNDER-RELAXATION based on the bottom elevation of the model will be applied to the model.

 DIS -- STRUCTURED GRID DISCRETIZATION PACKAGE, VERSION 2 : 3/27/2014 - INPUT READ FROM UNIT 1005

 Loading input for FLOPY_MODELS_T1B/DIS
 # File generated by Flopy version 3.3.6 on 06/28/2023 at 11:57:07.
   NLAY = 10
   NROW = 101
   NCOL = 101
   DELR = 4.000000000000000
   DELC = 4.000000000000000
   TOP = .000000000000000
   BOTM = variable 3D double precision array ranging from -50.00000000000000 to -5.000000000000000
 Loading input complete...


 NPF -- NODE PROPERTY FLOW PACKAGE, VERSION 1, 3/30/2015 INPUT READ FROM UNIT 1007

 Loading input for FLOPY_MODELS_T1B/NPF
 # File generated by Flopy version 3.3.6 on 06/28/2023 at 11:57:08.
   ICELLTYPE = 1
   K = 1.000000000000000
 Loading input complete...

 Setting Discretization Options
 End Setting Discretization Options

 Setting Discretization Dimensions
    NLAY = 10
    NROW = 101
    NCOL = 101
 End Setting Discretization Dimensions

 Setting Discretization Griddata
    DELR set from input file
    DELC set from input file
    TOP set from input file
    BOTM set from input file
 End Setting Discretization Griddata

 Setting NPF Options
 End Setting NPF Options

 Setting NPF Griddata
    ICELLTYPE set from input file
    K set from input file
    K33 not provided.  Setting K33 = K.
    K22 not provided.  Setting K22 = K.
 End Setting NPF Griddata


 WEL   -- WEL PACKAGE, VERSION 8, 2/22/2014 INPUT READ FROM UNIT 1011
 # File generated by Flopy version 3.3.6 on 06/28/2023 at 11:57:08.

 PROCESSING WEL OPTIONS
 END OF WEL OPTIONS

 PROCESSING WEL DIMENSIONS
    MAXBOUND =       2
 END OF WEL DIMENSIONS

 RCH   -- RCH PACKAGE, VERSION 8, 2/22/2014 INPUT READ FROM UNIT 1012
 # File generated by Flopy version 3.3.6 on 06/28/2023 at 11:57:08.

 PROCESSING RCH OPTIONS
    RECHARGE INPUT WILL BE READ AS ARRAY(S).
 END OF RCHA OPTIONS

 CHD   -- CHD PACKAGE, VERSION 8, 2/22/2014 INPUT READ FROM UNIT 1009
 # File generated by Flopy version 3.3.6 on 06/28/2023 at 11:57:08.

 PROCESSING CHD OPTIONS
 END OF CHD OPTIONS

 PROCESSING CHD DIMENSIONS
    MAXBOUND =     400
 END OF CHD DIMENSIONS

 IC -- INITIAL CONDITIONS PACKAGE, VERSION 8, 3/28/2015 INPUT READ FROM UNIT 1006
 # File generated by Flopy version 3.3.6 on 06/28/2023 at 11:57:07.
 PROCESSING GRIDDATA
 END PROCESSING GRIDDATA

 STO -- STORAGE PACKAGE, VERSION 1, 5/19/2014 INPUT READ FROM UNIT 1008


 # File generated by Flopy version 3.3.6 on 06/28/2023 at 11:57:08.
 PROCESSING STORAGE OPTIONS
 END OF STORAGE OPTIONS
 PROCESSING GRIDDATA

                 ICONVERT = 1

         SPECIFIC STORAGE =  0.1000000E-04

           SPECIFIC YIELD =  0.1500000    
 END PROCESSING GRIDDATA
    BINARY GRID INFORMATION WILL BE WRITTEN TO:
      UNIT NUMBER: 1014
      FILE NAME: C:\Users\ksil8584\OneDrive - The University of Sydney (Staff)\Documents\Modflow\FloPy models\FP_ModelS_2\output_q_900-1100_r_005-01\FloPy_ModelS_T1b.dis.grb

 OPENED C:\Users\ksil8584\OneDrive - The University of Sydney (Staff)\Documents\Modflow\FloPy models\FP_ModelS_2\output_q_900-1100_r_005-01\FloPy_ModelS_T1b.dis.grb
 FILE TYPE:DATA(BINARY)   UNIT 1014   STATUS:REPLACE             
 FORMAT:UNFORMATTED            ACCESS:STREAM              
 ACTION:READWRITE           

      THE LAST TIME STEP WILL BE PRINTED
      THE LAST TIME STEP WILL BE PRINTED
 # File generated by Flopy version 3.3.6 on 06/28/2023 at 11:57:08.

 PROCESSING OC OPTIONS

    BUDGET INFORMATION WILL BE WRITTEN TO:
      UNIT NUMBER: 1015
      FILE NAME: FloPy_ModelS_T1b.cbb

 OPENED FloPy_ModelS_T1b.cbb
 FILE TYPE:DATA(BINARY)   UNIT 1015   STATUS:REPLACE             
 FORMAT:UNFORMATTED            ACCESS:STREAM              
 ACTION:READWRITE           

    HEAD INFORMATION WILL BE WRITTEN TO:
      UNIT NUMBER: 1016
      FILE NAME: FloPy_ModelS_T1b.hds

 OPENED FloPy_ModelS_T1b.hds
 FILE TYPE:DATA(BINARY)   UNIT 1016   STATUS:REPLACE             
 FORMAT:UNFORMATTED            ACCESS:STREAM              
 ACTION:READWRITE           

 END OF OC OPTIONS

start timestep kper="1" kstp="1" mode="normal"


 BEGIN READING OUTPUT CONTROL FOR STRESS PERIOD 1
      ALL TIME STEPS WILL BE SAVED
      ALL TIME STEPS WILL BE SAVED
      THE LAST TIME STEP WILL BE PRINTED

 END READING OUTPUT CONTROL FOR STRESS PERIOD 1


 STRESS PERIOD 1 IS TRANSIENT


                 RECHARGE =  0.9754140E-02
 UBDSV1 SAVING           STO-SS ON UNIT   1015 AT TIME STEP      1, STRESS PERIOD      1
 UBDSV1 SAVING           STO-SY ON UNIT   1015 AT TIME STEP      1, STRESS PERIOD      1
 UBDSV1 SAVING     FLOW-JA-FACE ON UNIT   1015 AT TIME STEP      1, STRESS PERIOD      1
 UBDSV06 SAVING              WEL IN MODEL FLOPY_MODELS_T1B PACKAGE FLOPY_MODELS_T1BCONNECTED TO MODEL FLOPY_MODELS_T1B PACKAGE WEL_0            ON UNIT   1015 AT TIME STEP      1, STRESS PERIOD      1
 UBDSV06 SAVING             RCHA IN MODEL FLOPY_MODELS_T1B PACKAGE FLOPY_MODELS_T1BCONNECTED TO MODEL FLOPY_MODELS_T1B PACKAGE RCH              ON UNIT   1015 AT TIME STEP      1, STRESS PERIOD      1
 UBDSV06 SAVING              CHD IN MODEL FLOPY_MODELS_T1B PACKAGE FLOPY_MODELS_T1BCONNECTED TO MODEL FLOPY_MODELS_T1B PACKAGE CHD_0            ON UNIT   1015 AT TIME STEP      1, STRESS PERIOD      1
1
  HEAD IN LAYER   1 AT END OF TIME STEP   1 IN STRESS PERIOD    1
  ---------------------------------------------------------------------------

            1           2           3           4           5           6           7           8           9          10
           11          12          13          14          15          16          17          18          19          20
           21          22          23          24          25          26          27          28          29          30
           31          32          33          34          35          36          37          38          39          40
           41          42          43          44          45          46          47          48          49          50
           51          52          53          54          55          56          57          58          59          60
           61          62          63          64          65          66          67          68          69          70
           71          72          73          74          75          76          77          78          79          80
           81          82          83          84          85          86          87          88          89          90
           91          92          93          94          95          96          97          98          99         100
          101
 ........................................................................................................................
   1    100.0       100.0       100.0       100.0       100.0       100.0       100.0       100.0       100.0       100.0    
        100.0       100.0       100.0       100.0       100.0       100.0       100.0       100.0       100.0       100.0    
        100.0       100.0       100.0       100.0       100.0       100.0       100.0       100.0       100.0       100.0    
        100.0       100.0       100.0       100.0       100.0       100.0       100.0       100.0       100.0       100.0    
        100.0       100.0       100.0       100.0       100.0       100.0       100.0       100.0       100.0       100.0    
        100.0       100.0       100.0       100.0       100.0       100.0       100.0       100.0       100.0       100.0    
        100.0       100.0       100.0       100.0       100.0       100.0       100.0       100.0       100.0       100.0    
        100.0       100.0       100.0       100.0       100.0       100.0       100.0       100.0       100.0       100.0    
        100.0       100.0       100.0       100.0       100.0       100.0       100.0       100.0       100.0       100.0    
        100.0       100.0       100.0       100.0       100.0       100.0       100.0       100.0       100.0       100.0    
        100.0    
   2    100.0       99.88       99.82       99.78       99.75       99.72       99.70       99.68       99.65       99.63    
        99.61       99.59       99.57       99.55       99.53       99.51       99.50       99.48       99.46       99.45    
        99.43       99.42       99.41       99.40       99.39       99.39       99.38       99.38       99.38       99.38    
        99.38       99.38       99.39       99.39       99.40       99.41       99.41       99.42       99.43       99.44    
        99.45       99.45       99.46       99.47       99.47       99.48       99.48       99.48       99.49       99.49    
        99.49       99.49       99.49       99.48       99.48       99.48       99.47       99.47       99.46       99.45    
        99.45       99.44       99.43       99.42       99.41       99.41       99.40       99.39       99.39       99.38    
        99.38       99.38       99.38       99.38       99.38       99.39       99.39       99.40       99.41       99.42    
        99.43       99.45       99.46       99.48       99.50       99.51       99.53       99.55       99.57       99.59    
        99.61       99.63       99.65       99.68       99.70       99.72       99.75       99.78       99.82       99.88    
        100.0    
   3    100.0       99.82       99.72       99.65       99.59       99.55       99.50       99.47       99.43       99.39    
        99.36       99.32       99.29       99.26       99.22       99.19       99.16       99.13       99.11       99.08    
        99.06       99.04       99.02       99.00       98.99       98.98       98.97       98.97       98.97       98.97    
        98.97       98.98       98.98       98.99       99.00       99.02       99.03       99.04       99.05       99.07    
        99.08       99.09       99.10       99.11       99.12       99.13       99.14       99.14       99.15       99.15    
        99.15       99.15       99.15       99.14       99.14       99.13       99.12       99.11       99.10       99.09    
        99.08       99.07       99.05       99.04       99.03       99.02       99.00       98.99       98.98       98.98    
        98.97       98.97       98.97       98.97       98.97       98.98       98.99       99.00       99.02       99.04    
        99.06       99.08       99.11       99.13       99.16       99.19       99.22       99.26       99.29       99.32    
        99.36       99.39       99.43       99.47       99.50       99.55       99.59       99.65       99.72       99.82    
        100.0    
   4    100.0       99.78       99.65       99.55       99.48       99.42       99.36       99.31       99.26       99.22    
        99.17       99.12       99.08       99.04       98.99       98.95       98.91       98.87       98.84       98.80    
        98.77       98.75       98.72       98.70       98.69       98.67       98.66       98.66       98.66       98.66    
        98.66       98.67       98.68       98.69       98.71       98.72       98.74       98.76       98.78       98.79    
        98.81       98.83       98.84       98.86       98.87       98.88       98.89       98.90       98.90       98.90    
        98.91       98.90       98.90       98.90       98.89       98.88       98.87       98.86       98.84       98.83    
        98.81       98.79       98.78       98.76       98.74       98.72       98.71       98.69       98.68       98.67    
        98.66       98.66       98.66       98.66       98.66       98.67       98.69       98.70       98.72       98.75    
        98.77       98.80       98.84       98.87       98.91       98.95       98.99       99.04       99.08       99.12    
        99.17       99.22       99.26       99.31       99.36       99.42       99.48       99.55       99.65       99.78    
        100.0    
   5    100.0       99.75       99.59       99.48       99.39       99.32       99.25       99.19       99.13       99.07    
        99.02       98.96       98.91       98.86       98.80       98.75       98.71       98.66       98.62       98.58    
        98.54       98.51       98.48       98.45       98.44       98.42       98.41       98.40       98.40       98.40    
        98.41       98.42       98.43       98.45       98.47       98.49       98.51       98.53       98.55       98.57    
        98.59       98.61       98.63       98.65       98.66       98.68       98.69       98.70       98.70       98.71    
        98.71       98.71       98.70       98.70       98.69       98.68       98.66       98.65       98.63       98.61    
        98.59       98.57       98.55       98.53       98.51       98.49       98.47       98.45       98.43       98.42    
        98.41       98.40       98.40       98.40       98.41       98.42       98.44       98.45       98.48       98.51    
        98.54       98.58       98.62       98.66       98.71       98.75       98.80       98.86       98.91       98.96    
        99.02       99.07       99.13       99.19       99.25       99.32       99.39       99.48       99.59       99.75    
        100.0    
   6    100.0       99.72       99.55       99.42       99.32       99.23       99.15       99.08       99.01       98.95    
        98.88       98.82       98.76       98.70       98.64       98.58       98.53       98.47       98.42       98.38    
        98.33       98.30       98.26       98.24       98.21       98.20       98.18       98.18       98.18       98.18    
        98.19       98.20       98.22       98.24       98.26       98.28       98.31       98.33       98.36       98.38    
        98.41       98.43       98.45       98.47       98.49       98.51       98.52       98.53       98.54       98.54    
        98.54       98.54       98.54       98.53       98.52       98.51       98.49       98.47       98.45       98.43    
        98.41       98.38       98.36       98.33       98.31       98.28       98.26       98.24       98.22       98.20    
        98.19       98.18       98.18       98.18       98.18       98.20       98.21       98.24       98.26       98.30    
        98.33       98.38       98.42       98.47       98.53       98.58       98.64       98.70       98.76       98.82    
        98.88       98.95       99.01       99.08       99.15       99.23       99.32       99.42       99.55       99.72    
        100.0    
   7    100.0       99.70       99.51       99.37       99.25       99.16       99.07       98.99       98.91       98.84    
        98.77       98.69       98.62       98.56       98.49       98.42       98.36       98.30       98.24       98.19    
        98.14       98.10       98.06       98.03       98.01       97.99       97.97       97.97       97.97       97.97    
        97.98       98.00       98.02       98.04       98.07       98.09       98.12       98.15       98.18       98.21    
        98.24       98.27       98.29       98.32       98.34       98.36       98.37       98.38       98.39       98.40    
        98.40       98.40       98.39       98.38       98.37       98.36       98.34       98.32       98.29       98.27    
        98.24       98.21       98.18       98.15       98.12       98.09       98.07       98.04       98.02       98.00    
        97.98       97.97       97.97       97.97       97.97       97.99       98.01       98.03       98.06       98.10    
        98.14       98.19       98.24       98.30       98.36       98.42       98.49       98.56       98.62       98.69    
        98.77       98.84       98.91       98.99       99.07       99.16       99.25       99.37       99.51       99.70    
        100.0    
   8    100.0       99.68       99.47       99.32       99.19       99.09       98.99       98.90       98.82       98.74    
        98.65       98.58       98.50       98.42       98.35       98.27       98.20       98.14       98.07       98.01    
        97.96       97.91       97.87       97.83       97.81       97.79       97.77       97.77       97.77       97.77    
        97.79       97.81       97.83       97.86       97.89       97.92       97.95       97.99       98.02       98.06    
        98.09       98.12       98.15       98.17       98.20       98.22       98.24       98.25       98.26       98.26    
        98.27       98.26       98.26       98.25       98.24       98.22       98.20       98.17       98.15       98.12    
        98.09       98.06       98.02       97.99       97.95       97.92       97.89       97.86       97.83       97.81    
        97.79       97.77       97.77       97.77       97.77       97.79       97.81       97.83       97.87       97.91    
        97.96       98.01       98.07       98.14       98.20       98.27       98.35       98.42       98.50       98.58    
        98.65       98.74       98.82       98.90       98.99       99.09       99.19       99.32       99.47       99.68    
        100.0    
   9    100.0       99.66       99.44       99.27       99.14       99.02       98.92       98.82       98.73       98.64    
        98.55       98.46       98.38       98.29       98.21       98.13       98.05       97.97       97.90       97.84    
        97.78       97.73       97.68       97.64       97.61       97.59       97.57       97.57       97.57       97.58    
        97.60       97.62       97.65       97.68       97.71       97.75       97.79       97.83       97.87       97.91    
        97.94       97.98       98.01       98.04       98.07       98.09       98.11       98.13       98.14       98.14    
        98.14       98.14       98.14       98.13       98.11       98.09       98.07       98.04       98.01       97.98    
        97.94       97.91       97.87       97.83       97.79       97.75       97.71       97.68       97.65       97.62    
        97.60       97.58       97.57       97.57       97.57       97.59       97.61       97.64       97.68       97.73    
        97.78       97.84       97.90       97.97       98.05       98.13       98.21       98.29       98.38       98.46    
        98.55       98.64       98.73       98.82       98.92       99.02       99.14       99.27       99.44       99.66    
        100.0    
  10    100.0       99.64       99.40       99.23       99.08       98.96       98.85       98.74       98.64       98.54    
        98.45       98.35       98.26       98.17       98.07       97.98       97.90       97.82       97.74       97.67    
        97.60       97.54       97.49       97.45       97.41       97.39       97.37       97.37       97.37       97.39    
        97.41       97.43       97.46       97.50       97.54       97.59       97.63       97.68       97.72       97.76    
        97.81       97.85       97.88       97.92       97.95       97.97       97.99       98.01       98.02       98.03    
        98.03       98.03       98.02       98.01       97.99       97.97       97.95       97.92       97.88       97.85    
        97.81       97.76       97.72       97.68       97.63       97.59       97.54       97.50       97.46       97.43    
        97.41       97.39       97.37       97.37       97.37       97.39       97.41       97.45       97.49       97.54    
        97.60       97.67       97.74       97.82       97.90       97.98       98.07       98.17       98.26       98.35    
        98.45       98.54       98.64       98.74       98.85       98.96       99.08       99.23       99.40       99.64    
        100.0    
  11    100.0       99.62       99.37       99.18       99.03       98.90       98.78       98.67       98.56       98.45    
        98.35       98.24       98.14       98.04       97.94       97.84       97.75       97.66       97.57       97.49    
        97.42       97.35       97.29       97.25       97.21       97.19       97.17       97.17       97.17       97.19    
        97.21       97.25       97.28       97.33       97.38       97.42       97.48       97.53       97.58       97.63    
        97.68       97.72       97.76       97.80       97.83       97.86       97.88       97.90       97.91       97.92    
        97.93       97.92       97.91       97.90       97.88       97.86       97.83       97.80       97.76       97.72    
        97.68       97.63       97.58       97.53       97.48       97.42       97.38       97.33       97.28       97.25    
        97.21       97.19       97.17       97.17       97.17       97.19       97.21       97.25       97.29       97.35    
        97.42       97.49       97.57       97.66       97.75       97.84       97.94       98.04       98.14       98.24    
        98.35       98.45       98.56       98.67       98.78       98.90       99.03       99.18       99.37       99.62    
        100.0    
  12    100.0       99.60       99.34       99.14       98.98       98.84       98.71       98.59       98.48       98.36    
        98.25       98.14       98.03       97.92       97.81       97.70       97.60       97.50       97.40       97.31    
        97.23       97.16       97.10       97.05       97.01       96.98       96.97       96.96       96.97       96.99    
        97.02       97.06       97.10       97.15       97.21       97.27       97.32       97.38       97.44       97.49    
        97.55       97.60       97.64       97.68       97.72       97.75       97.78       97.80       97.81       97.82    
        97.82       97.82       97.81       97.80       97.78       97.75       97.72       97.68       97.64       97.60    
        97.55       97.49       97.44       97.38       97.32       97.27       97.21       97.15       97.10       97.06    
        97.02       96.99       96.97       96.96       96.97       96.98       97.01       97.05       97.10       97.16    
        97.23       97.31       97.40       97.50       97.60       97.70       97.81       97.92       98.03       98.14    
        98.25       98.36       98.48       98.59       98.71       98.84       98.98       99.14       99.34       99.60    
        100.0    
  13    100.0       99.58       99.31       99.10       98.93       98.79       98.65       98.52       98.40       98.28    
        98.16       98.03       97.91       97.80       97.68       97.56       97.45       97.34       97.23       97.13    
        97.04       96.96       96.90       96.84       96.80       96.77       96.75       96.75       96.77       96.79    
        96.83       96.87       96.92       96.98       97.04       97.11       97.17       97.24       97.30       97.37    
        97.42       97.48       97.53       97.58       97.62       97.65       97.68       97.70       97.72       97.73    
        97.73       97.73       97.72       97.70       97.68       97.65       97.62       97.58       97.53       97.48    
        97.42       97.37       97.30       97.24       97.17       97.11       97.04       96.98       96.92       96.87    
        96.83       96.79       96.77       96.75       96.75       96.77       96.80       96.84       96.90       96.96    
        97.04       97.13       97.23       97.34       97.45       97.56       97.68       97.80       97.91       98.03    
        98.16       98.28       98.40       98.52       98.65       98.79       98.93       99.10       99.31       99.58    
        100.0    
  14    100.0       99.57       99.28       99.06       98.89       98.73       98.59       98.45       98.32       98.19    
        98.06       97.93       97.80       97.67       97.55       97.42       97.29       97.17       97.06       96.95    
        96.85       96.77       96.69       96.63       96.58       96.55       96.54       96.54       96.56       96.59    
        96.63       96.68       96.74       96.81       96.88       96.95       97.03       97.10       97.17       97.24    
        97.31       97.37       97.42       97.47       97.52       97.55       97.58       97.61       97.63       97.64    
        97.64       97.64       97.63       97.61       97.58       97.55       97.52       97.47       97.42       97.37    
        97.31       97.24       97.17       97.10       97.03       96.95       96.88       96.81       96.74       96.68    
        96.63       96.59       96.56       96.54       96.54       96.55       96.58       96.63       96.69       96.77    
        96.85       96.95       97.06       97.17       97.29       97.42       97.55       97.67       97.80       97.93    
        98.06       98.19       98.32       98.45       98.59       98.73       98.89       99.06       99.28       99.57    
        100.0    
  15    100.0       99.55       99.25       99.03       98.84       98.68       98.53       98.39       98.25       98.11    
        97.97       97.83       97.69       97.56       97.42       97.28       97.14       97.01       96.89       96.77    
        96.66       96.56       96.48       96.41       96.36       96.33       96.32       96.32       96.34       96.38    
        96.43       96.49       96.56       96.63       96.71       96.80       96.88       96.96       97.04       97.12    
        97.19       97.26       97.32       97.37       97.42       97.46       97.50       97.52       97.54       97.55    
        97.56       97.55       97.54       97.52       97.50       97.46       97.42       97.37       97.32       97.26    
        97.19       97.12       97.04       96.96       96.88       96.80       96.71       96.63       96.56       96.49    
        96.43       96.38       96.34       96.32       96.32       96.33       96.36       96.41       96.48       96.56    
        96.66       96.77       96.89       97.01       97.14       97.28       97.42       97.56       97.69       97.83    
        97.97       98.11       98.25       98.39       98.53       98.68       98.84       99.03       99.25       99.55    
        100.0    
  16    100.0       99.53       99.22       98.99       98.80       98.63       98.47       98.32       98.18       98.03    
        97.88       97.74       97.59       97.44       97.29       97.14       96.99       96.85       96.71       96.58    
        96.46       96.36       96.27       96.19       96.14       96.11       96.09       96.10       96.12       96.17    
        96.23       96.30       96.38       96.46       96.55       96.65       96.74       96.83       96.92       97.00    
        97.08       97.16       97.22       97.28       97.33       97.38       97.41       97.44       97.46       97.47    
        97.48       97.47       97.46       97.44       97.41       97.38       97.33       97.28       97.22       97.16    
        97.08       97.00       96.92       96.83       96.74       96.65       96.55       96.46       96.38       96.30    
        96.23       96.17       96.12       96.10       96.09       96.11       96.14       96.19       96.27       96.36    
        96.46       96.58       96.71       96.85       96.99       97.14       97.29       97.44       97.59       97.74    
        97.88       98.03       98.18       98.32       98.47       98.63       98.80       98.99       99.22       99.53    
        100.0    
  17    100.0       99.52       99.20       98.96       98.76       98.58       98.42       98.26       98.11       97.96    
        97.80       97.64       97.49       97.33       97.17       97.01       96.85       96.69       96.54       96.40    
        96.27       96.15       96.05       95.97       95.91       95.88       95.87       95.88       95.91       95.96    
        96.03       96.11       96.20       96.29       96.40       96.50       96.60       96.70       96.80       96.89    
        96.98       97.06       97.13       97.19       97.25       97.30       97.34       97.37       97.39       97.40    
        97.41       97.40       97.39       97.37       97.34       97.30       97.25       97.19       97.13       97.06    
        96.98       96.89       96.80       96.70       96.60       96.50       96.40       96.29       96.20       96.11    
        96.03       95.96       95.91       95.88       95.87       95.88       95.91       95.97       96.05       96.15    
        96.27       96.40       96.54       96.69       96.85       97.01       97.17       97.33       97.49       97.64    
        97.80       97.96       98.11       98.26       98.42       98.58       98.76       98.96       99.20       99.52    
        100.0    
  18    100.0       99.51       99.18       98.93       98.72       98.54       98.37       98.21       98.05       97.88    
        97.72       97.56       97.39       97.22       97.05       96.88       96.71       96.54       96.37       96.22    
        96.08       95.95       95.84       95.75       95.69       95.65       95.64       95.65       95.69       95.75    
        95.83       95.92       96.02       96.13       96.25       96.36       96.47       96.58       96.69       96.79    
        96.88       96.97       97.05       97.12       97.17       97.23       97.27       97.30       97.32       97.34    
        97.34       97.34       97.32       97.30       97.27       97.23       97.17       97.12       97.05       96.97    
        96.88       96.79       96.69       96.58       96.47       96.36       96.25       96.13       96.02       95.92    
        95.83       95.75       95.69       95.65       95.64       95.65       95.69       95.75       95.84       95.95    
        96.08       96.22       96.37       96.54       96.71       96.88       97.05       97.22       97.39       97.56    
        97.72       97.88       98.05       98.21       98.37       98.54       98.72       98.93       99.18       99.51    
        100.0    
  19    100.0       99.49       99.16       98.90       98.69       98.50       98.33       98.16       97.99       97.82    
        97.65       97.48       97.30       97.12       96.94       96.75       96.57       96.39       96.21       96.05    
        95.89       95.75       95.63       95.54       95.47       95.43       95.42       95.44       95.48       95.55    
        95.64       95.74       95.86       95.98       96.10       96.23       96.35       96.47       96.59       96.70    
        96.80       96.89       96.97       97.04       97.11       97.16       97.20       97.24       97.26       97.28    
        97.28       97.28       97.26       97.24       97.20       97.16       97.11       97.04       96.97       96.89    
        96.80       96.70       96.59       96.47       96.35       96.23       96.10       95.98       95.86       95.74    
        95.64       95.55       95.48       95.44       95.42       95.43       95.47       95.54       95.63       95.75    
        95.89       96.05       96.21       96.39       96.57       96.75       96.94       97.12       97.30       97.48    
        97.65       97.82       97.99       98.16       98.33       98.50       98.69       98.90       99.16       99.49    
        100.0    
  20    100.0       99.48       99.14       98.88       98.66       98.47       98.29       98.11       97.94       97.76    
        97.58       97.40       97.22       97.03       96.84       96.64       96.45       96.25       96.06       95.88    
        95.71       95.56       95.43       95.33       95.26       95.22       95.21       95.23       95.28       95.36    
        95.46       95.57       95.70       95.83       95.97       96.11       96.24       96.37       96.50       96.61    
        96.72       96.81       96.90       96.98       97.05       97.10       97.15       97.19       97.21       97.23    
        97.23       97.23       97.21       97.19       97.15       97.10       97.05       96.98       96.90       96.81    
        96.72       96.61       96.50       96.37       96.24       96.11       95.97       95.83       95.70       95.57    
        95.46       95.36       95.28       95.23       95.21       95.22       95.26       95.33       95.43       95.56    
        95.71       95.88       96.06       96.25       96.45       96.64       96.84       97.03       97.22       97.40    
        97.58       97.76       97.94       98.11       98.29       98.47       98.66       98.88       99.14       99.48    
        100.0    
  21    100.0       99.47       99.12       98.86       98.63       98.44       98.25       98.07       97.89       97.71    
        97.53       97.34       97.15       96.95       96.75       96.54       96.33       96.13       95.93       95.73    
        95.55       95.39       95.25       95.14       95.06       95.02       95.01       95.04       95.10       95.18    
        95.29       95.42       95.56       95.70       95.85       96.00       96.14       96.28       96.41       96.54    
        96.65       96.75       96.84       96.92       96.99       97.05       97.10       97.14       97.17       97.18    
        97.19       97.18       97.17       97.14       97.10       97.05       96.99       96.92       96.84       96.75    
        96.65       96.54       96.41       96.28       96.14       96.00       95.85       95.70       95.56       95.42    
        95.29       95.18       95.10       95.04       95.01       95.02       95.06       95.14       95.25       95.39    
        95.55       95.73       95.93       96.13       96.33       96.54       96.75       96.95       97.15       97.34    
        97.53       97.71       97.89       98.07       98.25       98.44       98.63       98.86       99.12       99.47    
        100.0    
  22    100.0       99.47       99.11       98.84       98.61       98.41       98.22       98.04       97.85       97.67    
        97.48       97.29       97.09       96.88       96.67       96.46       96.24       96.02       95.81       95.60    
        95.41       95.24       95.09       94.97       94.89       94.84       94.84       94.87       94.93       95.03    
        95.15       95.29       95.44       95.59       95.75       95.91       96.06       96.21       96.35       96.47    
        96.59       96.70       96.79       96.88       96.95       97.01       97.06       97.10       97.13       97.15    
        97.15       97.15       97.13       97.10       97.06       97.01       96.95       96.88       96.79       96.70    
        96.59       96.47       96.35       96.21       96.06       95.91       95.75       95.59       95.44       95.29    
        95.15       95.03       94.93       94.87       94.84       94.84       94.89       94.97       95.09       95.24    
        95.41       95.60       95.81       96.02       96.24       96.46       96.67       96.88       97.09       97.29    
        97.48       97.67       97.85       98.04       98.22       98.41       98.61       98.84       99.11       99.47    
        100.0    
  23    100.0       99.46       99.10       98.83       98.60       98.39       98.20       98.01       97.83       97.64    
        97.44       97.24       97.04       96.83       96.61       96.39       96.16       95.93       95.71       95.50    
        95.30       95.11       94.96       94.83       94.74       94.70       94.69       94.73       94.80       94.90    
        95.03       95.18       95.34       95.50       95.67       95.84       96.00       96.15       96.29       96.43    
        96.55       96.66       96.76       96.84       96.92       96.98       97.04       97.08       97.10       97.12    
        97.13       97.12       97.10       97.08       97.04       96.98       96.92       96.84       96.76       96.66    
        96.55       96.43       96.29       96.15       96.00       95.84       95.67       95.50       95.34       95.18    
        95.03       94.90       94.80       94.73       94.69       94.70       94.74       94.83       94.96       95.11    
        95.30       95.50       95.71       95.93       96.16       96.39       96.61       96.83       97.04       97.24    
        97.44       97.64       97.83       98.01       98.20       98.39       98.60       98.83       99.10       99.46    
        100.0    
  24    100.0       99.46       99.09       98.82       98.59       98.38       98.19       98.00       97.81       97.61    
        97.42       97.21       97.00       96.79       96.57       96.34       96.10       95.87       95.64       95.42    
        95.21       95.02       94.86       94.73       94.63       94.59       94.58       94.62       94.70       94.81    
        94.94       95.10       95.26       95.44       95.61       95.78       95.95       96.11       96.25       96.39    
        96.52       96.63       96.73       96.82       96.90       96.96       97.02       97.06       97.09       97.10    
        97.11       97.10       97.09       97.06       97.02       96.96       96.90       96.82       96.73       96.63    
        96.52       96.39       96.25       96.11       95.95       95.78       95.61       95.44       95.26       95.10    
        94.94       94.81       94.70       94.62       94.58       94.59       94.63       94.73       94.86       95.02    
        95.21       95.42       95.64       95.87       96.10       96.34       96.57       96.79       97.00       97.21    
        97.42       97.61       97.81       98.00       98.19       98.38       98.59       98.82       99.09       99.46    
        100.0    
  25    100.0       99.45       99.09       98.81       98.58       98.37       98.18       97.99       97.80       97.60    
        97.40       97.20       96.99       96.77       96.54       96.31       96.07       95.83       95.60       95.37    
        95.16       94.96       94.80       94.66       94.57       94.52       94.52       94.56       94.64       94.75    
        94.89       95.05       95.22       95.40       95.58       95.75       95.92       96.08       96.23       96.37    
        96.50       96.61       96.72       96.81       96.89       96.95       97.01       97.05       97.08       97.09    
        97.10       97.09       97.08       97.05       97.01       96.95       96.89       96.81       96.72       96.61    
        96.50       96.37       96.23       96.08       95.92       95.75       95.58       95.40       95.22       95.05    
        94.89       94.75       94.64       94.56       94.52       94.52       94.57       94.66       94.80       94.96    
        95.16       95.37       95.60       95.83       96.07       96.31       96.54       96.77       96.99       97.20    
        97.40       97.60       97.80       97.99       98.18       98.37       98.58       98.81       99.09       99.45    
        100.0    
  26    100.0       99.45       99.09       98.81       98.58       98.37       98.18       97.99       97.79       97.60    
        97.40       97.20       96.98       96.76       96.54       96.30       96.06       95.83       95.59       95.36    
        95.14       94.95       94.78       94.64       94.55       94.50       94.50       94.54       94.62       94.74    
        94.88       95.04       95.21       95.39       95.57       95.75       95.92       96.08       96.23       96.37    
        96.50       96.61       96.72       96.81       96.89       96.95       97.01       97.05       97.08       97.09    
        97.10       97.09       97.08       97.05       97.01       96.95       96.89       96.81       96.72       96.61    
        96.50       96.37       96.23       96.08       95.92       95.75       95.57       95.39       95.21       95.04    
        94.88       94.74       94.62       94.54       94.50       94.50       94.55       94.64       94.78       94.95    
        95.14       95.36       95.59       95.83       96.06       96.30       96.54       96.76       96.98       97.20    
        97.40       97.60       97.79       97.99       98.18       98.37       98.58       98.81       99.09       99.45    
        100.0    
  27    100.0       99.46       99.09       98.82       98.59       98.38       98.19       97.99       97.80       97.61    
        97.41       97.21       97.00       96.78       96.55       96.32       96.08       95.84       95.61       95.38    
        95.17       94.97       94.81       94.67       94.58       94.53       94.53       94.57       94.65       94.76    
        94.90       95.06       95.23       95.41       95.59       95.76       95.93       96.09       96.24       96.38    
        96.51       96.62       96.73       96.82       96.90       96.96       97.02       97.06       97.09       97.10    
        97.11       97.10       97.09       97.06       97.02       96.96       96.90       96.82       96.73       96.62    
        96.51       96.38       96.24       96.09       95.93       95.76       95.59       95.41       95.23       95.06    
        94.90       94.76       94.65       94.57       94.53       94.53       94.58       94.67       94.81       94.97    
        95.17       95.38       95.61       95.84       96.08       96.32       96.55       96.78       97.00       97.21    
        97.41       97.61       97.80       97.99       98.19       98.38       98.59       98.82       99.09       99.46    
        100.0    
  28    100.0       99.46       99.10       98.83       98.60       98.39       98.20       98.01       97.82       97.63    
        97.44       97.23       97.02       96.81       96.58       96.36       96.12       95.89       95.66       95.44    
        95.23       95.04       94.88       94.75       94.66       94.61       94.60       94.64       94.72       94.83    
        94.96       95.12       95.28       95.46       95.63       95.80       95.97       96.13       96.27       96.41    
        96.54       96.65       96.75       96.84       96.92       96.98       97.03       97.08       97.10       97.12    
        97.13       97.12       97.10       97.08       97.03       96.98       96.92       96.84       96.75       96.65    
        96.54       96.41       96.27       96.13       95.97       95.80       95.63       95.46       95.28       95.12    
        94.96       94.83       94.72       94.64       94.60       94.61       94.66       94.75       94.88       95.04    
        95.23       95.44       95.66       95.89       96.12       96.36       96.58       96.81       97.02       97.23    
        97.44       97.63       97.82       98.01       98.20       98.39       98.60       98.83       99.10       99.46    
        100.0    
  29    100.0       99.47       99.11       98.84       98.62       98.41       98.22       98.04       97.85       97.66    
        97.47       97.27       97.07       96.86       96.64       96.42       96.19       95.96       95.74       95.53    
        95.33       95.14       94.99       94.86       94.77       94.73       94.72       94.76       94.83       94.93    
        95.06       95.21       95.37       95.53       95.70       95.87       96.03       96.18       96.32       96.45    
        96.58       96.69       96.79       96.87       96.95       97.01       97.06       97.10       97.13       97.15    
        97.16       97.15       97.13       97.10       97.06       97.01       96.95       96.87       96.79       96.69    
        96.58       96.45       96.32       96.18       96.03       95.87       95.70       95.53       95.37       95.21    
        95.06       94.93       94.83       94.76       94.72       94.73       94.77       94.86       94.99       95.14    
        95.33       95.53       95.74       95.96       96.19       96.42       96.64       96.86       97.07       97.27    
        97.47       97.66       97.85       98.04       98.22       98.41       98.62       98.84       99.11       99.47    
        100.0    
  30    100.0       99.48       99.13       98.86       98.64       98.44       98.25       98.07       97.89       97.70    
        97.52       97.32       97.12       96.92       96.71       96.49       96.28       96.06       95.85       95.64    
        95.45       95.28       95.13       95.01       94.93       94.88       94.88       94.91       94.97       95.07    
        95.19       95.33       95.48       95.63       95.79       95.95       96.10       96.25       96.38       96.51    
        96.63       96.74       96.83       96.92       96.99       97.05       97.10       97.14       97.17       97.19    
        97.19       97.19       97.17       97.14       97.10       97.05       96.99       96.92       96.83       96.74    
        96.63       96.51       96.38       96.25       96.10       95.95       95.79       95.63       95.48       95.33    
        95.19       95.07       94.97       94.91       94.88       94.88       94.93       95.01       95.13       95.28    
        95.45       95.64       95.85       96.06       96.28       96.49       96.71       96.92       97.12       97.32    
        97.52       97.70       97.89       98.07       98.25       98.44       98.64       98.86       99.13       99.48    
        100.0    
  31    100.0       99.49       99.14       98.88       98.67       98.47       98.29       98.11       97.93       97.75    
        97.57       97.39       97.19       97.00       96.79       96.59       96.38       96.18       95.98       95.78    
        95.60       95.44       95.30       95.19       95.11       95.07       95.06       95.09       95.15       95.23    
        95.34       95.47       95.61       95.75       95.90       96.05       96.19       96.33       96.46       96.58    
        96.70       96.80       96.89       96.97       97.04       97.10       97.15       97.19       97.21       97.23    
        97.24       97.23       97.21       97.19       97.15       97.10       97.04       96.97       96.89       96.80    
        96.70       96.58       96.46       96.33       96.19       96.05       95.90       95.75       95.61       95.47    
        95.34       95.23       95.15       95.09       95.06       95.07       95.11       95.19       95.30       95.44    
        95.60       95.78       95.98       96.18       96.38       96.59       96.79       97.00       97.19       97.39    
        97.57       97.75       97.93       98.11       98.29       98.47       98.67       98.88       99.14       99.49    
        100.0    
  32    100.0       99.50       99.16       98.91       98.70       98.51       98.33       98.16       97.99       97.81    
        97.64       97.46       97.27       97.09       96.89       96.70       96.50       96.31       96.12       95.94    
        95.77       95.62       95.49       95.39       95.32       95.27       95.27       95.29       95.34       95.42    
        95.52       95.63       95.76       95.89       96.03       96.17       96.30       96.43       96.55       96.67    
        96.77       96.87       96.96       97.03       97.10       97.16       97.20       97.24       97.27       97.28    
        97.29       97.28       97.27       97.24       97.20       97.16       97.10       97.03       96.96       96.87    
        96.77       96.67       96.55       96.43       96.30       96.17       96.03       95.89       95.76       95.63    
        95.52       95.42       95.34       95.29       95.27       95.28       95.32       95.39       95.49       95.62    
        95.77       95.94       96.12       96.31       96.50       96.70       96.89       97.09       97.27       97.46    
        97.64       97.81       97.99       98.16       98.33       98.51       98.70       98.91       99.16       99.50    
        100.0    
  33    100.0       99.51       99.19       98.94       98.73       98.55       98.38       98.21       98.05       97.88    
        97.71       97.54       97.36       97.19       97.00       96.82       96.64       96.46       96.28       96.11    
        95.96       95.82       95.70       95.61       95.54       95.50       95.49       95.51       95.55       95.62    
        95.71       95.81       95.92       96.04       96.17       96.30       96.42       96.54       96.65       96.76    
        96.86       96.95       97.03       97.11       97.17       97.22       97.27       97.30       97.33       97.34    
        97.35       97.34       97.33       97.30       97.27       97.22       97.17       97.11       97.03       96.95    
        96.86       96.76       96.65       96.54       96.42       96.30       96.17       96.04       95.92       95.81    
        95.71       95.62       95.55       95.51       95.49       95.50       95.54       95.61       95.70       95.82    
        95.96       96.11       96.28       96.46       96.64       96.82       97.00       97.19       97.36       97.54    
        97.71       97.88       98.05       98.21       98.38       98.55       98.73       98.94       99.19       99.51    
        100.0    
  34    100.0       99.53       99.21       98.97       98.77       98.60       98.43       98.27       98.11       97.95    
        97.79       97.63       97.46       97.29       97.12       96.95       96.78       96.61       96.45       96.30    
        96.15       96.03       95.92       95.83       95.77       95.73       95.72       95.73       95.77       95.83    
        95.90       96.00       96.10       96.21       96.32       96.44       96.55       96.66       96.76       96.86    
        96.96       97.04       97.12       97.19       97.25       97.30       97.34       97.37       97.39       97.41    
        97.41       97.41       97.39       97.37       97.34       97.30       97.25       97.19       97.12       97.04    
        96.96       96.86       96.76       96.66       96.55       96.44       96.32       96.21       96.10       96.00    
        95.90       95.83       95.77       95.73       95.72       95.73       95.77       95.83       95.92       96.03    
        96.15       96.30       96.45       96.61       96.78       96.95       97.12       97.29       97.46       97.63    
        97.79       97.95       98.11       98.27       98.43       98.60       98.77       98.97       99.21       99.53    
        100.0    
  35    100.0       99.54       99.24       99.01       98.82       98.65       98.49       98.33       98.18       98.03    
        97.88       97.72       97.57       97.41       97.25       97.09       96.93       96.78       96.63       96.49    
        96.36       96.24       96.14       96.06       96.00       95.96       95.95       95.96       95.99       96.04    
        96.11       96.19       96.28       96.38       96.48       96.58       96.69       96.79       96.88       96.97    
        97.06       97.14       97.21       97.27       97.33       97.38       97.42       97.45       97.47       97.48    
        97.49       97.48       97.47       97.45       97.42       97.38       97.33       97.27       97.21       97.14    
        97.06       96.97       96.88       96.79       96.69       96.58       96.48       96.38       96.28       96.19    
        96.11       96.04       95.99       95.96       95.95       95.96       96.00       96.06       96.14       96.24    
        96.36       96.49       96.63       96.78       96.93       97.09       97.25       97.41       97.57       97.72    
        97.88       98.03       98.18       98.33       98.49       98.65       98.82       99.01       99.24       99.54    
        100.0    
  36    100.0       99.56       99.27       99.05       98.86       98.70       98.55       98.40       98.26       98.11    
        97.97       97.82       97.68       97.53       97.38       97.23       97.09       96.94       96.81       96.68    
        96.56       96.45       96.36       96.29       96.23       96.20       96.19       96.19       96.22       96.26    
        96.32       96.39       96.47       96.55       96.64       96.74       96.83       96.92       97.01       97.09    
        97.17       97.24       97.31       97.37       97.42       97.46       97.50       97.53       97.55       97.56    
        97.56       97.56       97.55       97.53       97.50       97.46       97.42       97.37       97.31       97.24    
        97.17       97.09       97.01       96.92       96.83       96.74       96.64       96.55       96.47       96.39    
        96.32       96.26       96.22       96.19       96.19       96.20       96.23       96.29       96.36       96.45    
        96.56       96.68       96.81       96.94       97.09       97.23       97.38       97.53       97.68       97.82    
        97.97       98.11       98.26       98.40       98.55       98.70       98.86       99.05       99.27       99.56    
        100.0    
  37    100.0       99.58       99.30       99.09       98.91       98.76       98.61       98.47       98.34       98.20    
        98.06       97.93       97.79       97.65       97.52       97.38       97.24       97.11       96.99       96.87    
        96.76       96.66       96.58       96.51       96.46       96.43       96.42       96.42       96.44       96.48    
        96.53       96.59       96.65       96.73       96.81       96.89       96.98       97.06       97.14       97.21    
        97.28       97.35       97.41       97.47       97.51       97.55       97.59       97.61       97.63       97.64    
        97.65       97.64       97.63       97.61       97.59       97.55       97.51       97.47       97.41       97.35    
        97.28       97.21       97.14       97.06       96.98       96.89       96.81       96.73       96.65       96.59    
        96.53       96.48       96.44       96.42       96.42       96.43       96.46       96.51       96.58       96.66    
        96.76       96.87       96.99       97.11       97.24       97.38       97.52       97.65       97.79       97.93    
        98.06       98.20       98.34       98.47       98.61       98.76       98.91       99.09       99.30       99.58    
        100.0    
  38    100.0       99.60       99.33       99.13       98.96       98.81       98.68       98.54       98.42       98.29    
        98.16       98.03       97.91       97.78       97.65       97.52       97.40       97.28       97.17       97.06    
        96.96       96.87       96.80       96.74       96.69       96.66       96.64       96.64       96.66       96.69    
        96.73       96.78       96.84       96.91       96.98       97.05       97.13       97.20       97.27       97.34    
        97.40       97.46       97.52       97.57       97.61       97.65       97.68       97.70       97.72       97.73    
        97.73       97.73       97.72       97.70       97.68       97.65       97.61       97.57       97.52       97.46    
        97.40       97.34       97.27       97.20       97.13       97.05       96.98       96.91       96.84       96.78    
        96.73       96.69       96.66       96.64       96.64       96.66       96.69       96.74       96.80       96.87    
        96.96       97.06       97.17       97.28       97.40       97.52       97.65       97.78       97.91       98.03    
        98.16       98.29       98.42       98.54       98.68       98.81       98.96       99.13       99.33       99.60    
        100.0    
  39    100.0       99.62       99.36       99.17       99.01       98.87       98.74       98.62       98.50       98.38    
        98.26       98.14       98.02       97.90       97.79       97.67       97.56       97.45       97.34       97.25    
        97.16       97.08       97.01       96.95       96.91       96.88       96.86       96.86       96.87       96.90    
        96.93       96.98       97.03       97.09       97.15       97.21       97.28       97.34       97.40       97.47    
        97.52       97.58       97.63       97.67       97.71       97.75       97.78       97.80       97.81       97.82    
        97.83       97.82       97.81       97.80       97.78       97.75       97.71       97.67       97.63       97.58    
        97.52       97.47       97.40       97.34       97.28       97.21       97.15       97.09       97.03       96.98    
        96.93       96.90       96.87       96.86       96.86       96.88       96.91       96.95       97.01       97.08    
        97.16       97.25       97.34       97.45       97.56       97.67       97.79       97.90       98.02       98.14    
        98.26       98.38       98.50       98.62       98.74       98.87       99.01       99.17       99.36       99.62    
        100.0    
  40    100.0       99.64       99.40       99.22       99.07       98.93       98.81       98.70       98.58       98.47    
        98.36       98.25       98.14       98.03       97.92       97.82       97.71       97.61       97.52       97.43    
        97.35       97.27       97.21       97.16       97.12       97.09       97.08       97.07       97.08       97.10    
        97.13       97.17       97.21       97.26       97.31       97.37       97.43       97.48       97.54       97.60    
        97.65       97.70       97.74       97.78       97.82       97.85       97.87       97.89       97.91       97.92    
        97.92       97.92       97.91       97.89       97.87       97.85       97.82       97.78       97.74       97.70    
        97.65       97.60       97.54       97.48       97.43       97.37       97.31       97.26       97.21       97.17    
        97.13       97.10       97.08       97.07       97.08       97.09       97.12       97.16       97.21       97.27    
        97.35       97.43       97.52       97.61       97.71       97.82       97.92       98.03       98.14       98.25    
        98.36       98.47       98.58       98.70       98.81       98.93       99.07       99.22       99.40       99.64    
        100.0    
  41    100.0       99.66       99.43       99.26       99.12       99.00       98.88       98.77       98.67       98.56    
        98.46       98.36       98.26       98.15       98.05       97.96       97.86       97.77       97.68       97.60    
        97.53       97.46       97.41       97.36       97.32       97.30       97.28       97.28       97.28       97.30    
        97.32       97.35       97.39       97.43       97.48       97.53       97.58       97.63       97.68       97.73    
        97.77       97.82       97.86       97.89       97.93       97.95       97.98       97.99       98.01       98.02    
        98.02       98.02       98.01       97.99       97.98       97.95       97.93       97.89       97.86       97.82    
        97.77       97.73       97.68       97.63       97.58       97.53       97.48       97.43       97.39       97.35    
        97.32       97.30       97.28       97.28       97.28       97.30       97.32       97.36       97.41       97.46    
        97.53       97.60       97.68       97.77       97.86       97.96       98.05       98.15       98.26       98.36    
        98.46       98.56       98.67       98.77       98.88       99.00       99.12       99.26       99.43       99.66    
        100.0    
  42    100.0       99.68       99.47       99.31       99.18       99.06       98.95       98.85       98.75       98.65    
        98.56       98.46       98.37       98.28       98.19       98.10       98.01       97.93       97.85       97.77    
        97.71       97.65       97.59       97.55       97.52       97.49       97.48       97.47       97.47       97.48    
        97.50       97.53       97.56       97.60       97.64       97.68       97.72       97.77       97.81       97.86    
        97.90       97.94       97.97       98.00       98.03       98.06       98.08       98.10       98.11       98.12    
        98.12       98.12       98.11       98.10       98.08       98.06       98.03       98.00       97.97       97.94    
        97.90       97.86       97.81       97.77       97.72       97.68       97.64       97.60       97.56       97.53    
        97.50       97.48       97.47       97.47       97.48       97.49       97.52       97.55       97.59       97.65    
        97.71       97.77       97.85       97.93       98.01       98.10       98.19       98.28       98.37       98.46    
        98.56       98.65       98.75       98.85       98.95       99.06       99.17       99.31       99.47       99.68    
        100.0    
  43    100.0       99.70       99.50       99.35       99.23       99.12       99.02       98.93       98.83       98.74    
        98.66       98.57       98.48       98.40       98.31       98.23       98.15       98.08       98.01       97.94    
        97.88       97.82       97.77       97.73       97.70       97.68       97.66       97.66       97.66       97.67    
        97.68       97.70       97.73       97.76       97.79       97.83       97.87       97.91       97.95       97.98    
        98.02       98.06       98.09       98.12       98.14       98.17       98.18       98.20       98.21       98.22    
        98.22       98.22       98.21       98.20       98.18       98.17       98.14       98.12       98.09       98.06    
        98.02       97.98       97.95       97.91       97.87       97.83       97.79       97.76       97.73       97.70    
        97.68       97.67       97.66       97.66       97.66       97.68       97.70       97.73       97.77       97.82    
        97.88       97.94       98.01       98.08       98.15       98.23       98.31       98.40       98.48       98.57    
        98.66       98.74       98.83       98.93       99.02       99.12       99.23       99.35       99.50       99.70    
        100.0    
  44    100.0       99.72       99.54       99.40       99.28       99.18       99.09       99.00       98.92       98.83    
        98.75       98.67       98.59       98.52       98.44       98.36       98.29       98.22       98.16       98.10    
        98.04       97.99       97.95       97.91       97.88       97.86       97.84       97.84       97.83       97.84    
        97.85       97.87       97.89       97.92       97.95       97.98       98.01       98.05       98.08       98.11    
        98.14       98.18       98.20       98.23       98.25       98.27       98.29       98.30       98.31       98.32    
        98.32       98.32       98.31       98.30       98.29       98.27       98.25       98.23       98.20       98.18    
        98.14       98.11       98.08       98.05       98.01       97.98       97.95       97.92       97.89       97.87    
        97.85       97.84       97.83       97.84       97.84       97.86       97.88       97.91       97.95       97.99    
        98.04       98.10       98.16       98.22       98.29       98.36       98.44       98.52       98.59       98.67    
        98.75       98.83       98.92       99.00       99.09       99.18       99.28       99.40       99.54       99.72    
        100.0    
  45    100.0       99.74       99.57       99.44       99.34       99.24       99.16       99.08       99.00       98.92    
        98.85       98.77       98.70       98.63       98.56       98.49       98.43       98.36       98.30       98.25    
        98.20       98.15       98.11       98.08       98.05       98.03       98.01       98.01       98.00       98.01    
        98.02       98.03       98.05       98.07       98.10       98.12       98.15       98.18       98.21       98.24    
        98.27       98.29       98.32       98.34       98.36       98.38       98.40       98.41       98.42       98.42    
        98.42       98.42       98.42       98.41       98.40       98.38       98.36       98.34       98.32       98.29    
        98.27       98.24       98.21       98.18       98.15       98.12       98.10       98.07       98.05       98.03    
        98.02       98.01       98.00       98.01       98.01       98.03       98.05       98.08       98.11       98.15    
        98.20       98.25       98.30       98.36       98.43       98.49       98.56       98.63       98.70       98.77    
        98.85       98.92       99.00       99.08       99.16       99.24       99.34       99.44       99.57       99.74    
        100.0    
  46    100.0       99.76       99.61       99.49       99.39       99.31       99.23       99.15       99.08       99.01    
        98.94       98.87       98.81       98.74       98.68       98.61       98.55       98.50       98.44       98.39    
        98.35       98.30       98.27       98.24       98.21       98.19       98.18       98.17       98.17       98.17    
        98.17       98.19       98.20       98.22       98.24       98.26       98.29       98.31       98.34       98.36    
        98.39       98.41       98.43       98.45       98.47       98.49       98.50       98.51       98.52       98.52    
        98.53       98.52       98.52       98.51       98.50       98.49       98.47       98.45       98.43       98.41    
        98.39       98.36       98.34       98.31       98.29       98.26       98.24       98.22       98.20       98.19    
        98.17       98.17       98.17       98.17       98.18       98.19       98.21       98.24       98.27       98.30    
        98.35       98.39       98.44       98.50       98.55       98.61       98.68       98.74       98.81       98.87    
        98.94       99.01       99.08       99.15       99.23       99.31       99.39       99.49       99.61       99.76    
        100.0    
  47    100.0       99.79       99.64       99.53       99.44       99.36       99.29       99.22       99.16       99.09    
        99.03       98.97       98.91       98.85       98.79       98.73       98.68       98.63       98.58       98.53    
        98.49       98.45       98.42       98.39       98.37       98.35       98.33       98.32       98.32       98.32    
        98.33       98.33       98.35       98.36       98.38       98.40       98.42       98.44       98.46       98.49    
        98.51       98.53       98.55       98.57       98.58       98.60       98.61       98.62       98.62       98.63    
        98.63       98.63       98.62       98.62       98.61       98.60       98.58       98.57       98.55       98.53    
        98.51       98.49       98.46       98.44       98.42       98.40       98.38       98.36       98.35       98.33    
        98.33       98.32       98.32       98.32       98.33       98.35       98.37       98.39       98.42       98.45    
        98.49       98.53       98.58       98.63       98.68       98.73       98.79       98.85       98.91       98.97    
        99.03       99.09       99.16       99.22       99.29       99.36       99.44       99.53       99.64       99.79    
        100.0    
  48    100.0       99.81       99.68       99.58       99.50       99.42       99.36       99.30       99.23       99.18    
        99.12       99.06       99.01       98.95       98.90       98.85       98.80       98.75       98.71       98.66    
        98.63       98.59       98.56       98.53       98.51       98.49       98.48       98.47       98.47       98.47    
        98.47       98.48       98.49       98.50       98.51       98.53       98.55       98.57       98.59       98.61    
        98.62       98.64       98.66       98.67       98.69       98.70       98.71       98.72       98.73       98.73    
        98.73       98.73       98.73       98.72       98.71       98.70       98.69       98.67       98.66       98.64    
        98.62       98.61       98.59       98.57       98.55       98.53       98.51       98.50       98.49       98.48    
        98.47       98.47       98.47       98.47       98.48       98.49       98.51       98.53       98.56       98.59    
        98.63       98.66       98.71       98.75       98.80       98.85       98.90       98.95       99.01       99.06    
        99.12       99.18       99.23       99.30       99.36       99.42       99.50       99.58       99.68       99.81    
        100.0    
  49    100.0       99.83       99.71       99.62       99.55       99.48       99.42       99.36       99.31       99.26    
        99.20       99.15       99.10       99.05       99.00       98.96       98.91       98.87       98.83       98.79    
        98.76       98.72       98.70       98.67       98.65       98.63       98.62       98.61       98.61       98.61    
        98.61       98.61       98.62       98.63       98.64       98.66       98.67       98.69       98.71       98.72    
        98.74       98.75       98.77       98.78       98.80       98.81       98.82       98.82       98.83       98.83    
        98.83       98.83       98.83       98.82       98.82       98.81       98.80       98.78       98.77       98.75    
        98.74       98.72       98.71       98.69       98.67       98.66       98.64       98.63       98.62       98.61    
        98.61       98.61       98.61       98.61       98.62       98.63       98.65       98.67       98.70       98.72    
        98.76       98.79       98.83       98.87       98.91       98.96       99.00       99.05       99.10       99.15    
        99.20       99.26       99.31       99.36       99.42       99.48       99.55       99.62       99.71       99.83    
        100.0    
  50    100.0       99.84       99.74       99.66       99.60       99.54       99.48       99.43       99.38       99.33    
        99.29       99.24       99.19       99.15       99.11       99.06       99.02       98.98       98.95       98.91    
        98.88       98.85       98.83       98.80       98.78       98.77       98.76       98.75       98.74       98.74    
        98.74       98.75       98.75       98.76       98.77       98.78       98.79       98.81       98.82       98.84    
        98.85       98.86       98.88       98.89       98.90       98.91       98.92       98.92       98.93       98.93    
        98.93       98.93       98.93       98.92       98.92       98.91       98.90       98.89       98.88       98.86    
        98.85       98.84       98.82       98.81       98.79       98.78       98.77       98.76       98.75       98.75    
        98.74       98.74       98.74       98.75       98.76       98.77       98.78       98.80       98.83       98.85    
        98.88       98.91       98.95       98.98       99.02       99.06       99.11       99.15       99.19       99.24    
        99.29       99.33       99.38       99.43       99.48       99.54       99.60       99.66       99.74       99.84    
        100.0    
  51    100.0       99.86       99.77       99.70       99.64       99.59       99.54       99.50       99.45       99.41    
        99.37       99.33       99.28       99.24       99.20       99.17       99.13       99.09       99.06       99.03    
        99.00       98.97       98.95       98.93       98.91       98.90       98.89       98.88       98.87       98.87    
        98.87       98.87       98.88       98.88       98.89       98.90       98.91       98.92       98.94       98.95    
        98.96       98.97       98.98       98.99       99.00       99.01       99.02       99.02       99.03       99.03    
        99.03       99.03       99.03       99.02       99.02       99.01       99.00       98.99       98.98       98.97    
        98.96       98.95       98.94       98.92       98.91       98.90       98.89       98.88       98.88       98.87    
        98.87       98.87       98.87       98.88       98.89       98.90       98.91       98.93       98.95       98.97    
        99.00       99.03       99.06       99.09       99.13       99.17       99.20       99.24       99.28       99.33    
        99.37       99.41       99.45       99.50       99.54       99.59       99.64       99.70       99.77       99.86    
        100.0    
  52    100.0       99.88       99.80       99.74       99.69       99.64       99.60       99.56       99.52       99.48    
        99.44       99.41       99.37       99.33       99.30       99.26       99.23       99.20       99.17       99.14    
        99.11       99.09       99.07       99.05       99.03       99.02       99.01       99.00       98.99       98.99    
        98.99       98.99       99.00       99.00       99.01       99.02       99.03       99.03       99.05       99.06    
        99.07       99.08       99.09       99.09       99.10       99.11       99.12       99.12       99.12       99.13    
        99.13       99.13       99.12       99.12       99.12       99.11       99.10       99.09       99.09       99.08    
        99.07       99.06       99.05       99.03       99.03       99.02       99.01       99.00       99.00       98.99    
        98.99       98.99       98.99       99.00       99.01       99.02       99.03       99.05       99.07       99.09    
        99.11       99.14       99.17       99.20       99.23       99.26       99.30       99.33       99.37       99.41    
        99.44       99.48       99.52       99.56       99.60       99.64       99.69       99.74       99.80       99.88    
        100.0    
  53    100.0       99.90       99.83       99.78       99.74       99.70       99.66       99.62       99.59       99.55    
        99.52       99.49       99.45       99.42       99.39       99.36       99.33       99.30       99.27       99.25    
        99.22       99.20       99.18       99.16       99.15       99.14       99.13       99.12       99.11       99.11    
        99.11       99.11       99.11       99.11       99.12       99.13       99.13       99.14       99.15       99.16    
        99.17       99.18       99.19       99.19       99.20       99.21       99.21       99.22       99.22       99.22    
        99.22       99.22       99.22       99.22       99.21       99.21       99.20       99.19       99.19       99.18    
        99.17       99.16       99.15       99.14       99.13       99.13       99.12       99.11       99.11       99.11    
        99.11       99.11       99.11       99.12       99.13       99.14       99.15       99.16       99.18       99.20    
        99.22       99.25       99.27       99.30       99.33       99.36       99.39       99.42       99.45       99.49    
        99.52       99.55       99.59       99.62       99.66       99.70       99.74       99.78       99.83       99.90    
        100.0    
  54    100.0       99.92       99.86       99.82       99.78       99.75       99.71       99.68       99.65       99.62    
        99.59       99.56       99.53       99.50       99.47       99.45       99.42       99.39       99.37       99.35    
[...]
        100.7       100.7       100.6       100.6       100.6       100.6       100.6       100.6       100.6       100.6    
        100.6       100.6       100.6       100.6       100.6       100.6       100.6       100.6       100.6       100.6    
        100.6       100.6       100.6       100.6       100.6       100.6       100.6       100.6       100.6       100.6    
        100.6       100.6       100.5       100.5       100.5       100.5       100.5       100.5       100.5       100.5    
        100.5       100.5       100.4       100.4       100.4       100.4       100.4       100.4       100.4       100.4    
        100.4    
  89    100.4       100.4       100.4       100.4       100.4       100.4       100.4       100.4       100.4       100.5    
        100.5       100.5       100.5       100.5       100.5       100.5       100.5       100.5       100.5       100.6    
        100.6       100.6       100.6       100.6       100.6       100.6       100.6       100.6       100.6       100.6    
        100.6       100.6       100.6       100.6       100.6       100.6       100.6       100.6       100.6       100.6    
        100.6       100.6       100.6       100.6       100.6       100.6       100.6       100.6       100.6       100.6    
        100.6       100.6       100.6       100.6       100.6       100.6       100.6       100.6       100.6       100.6    
        100.6       100.6       100.6       100.6       100.6       100.6       100.6       100.6       100.6       100.6    
        100.6       100.6       100.6       100.6       100.6       100.6       100.6       100.6       100.6       100.6    
        100.6       100.6       100.5       100.5       100.5       100.5       100.5       100.5       100.5       100.5    
        100.5       100.5       100.4       100.4       100.4       100.4       100.4       100.4       100.4       100.4    
        100.4    
  90    100.4       100.4       100.4       100.4       100.4       100.4       100.4       100.4       100.4       100.5    
        100.5       100.5       100.5       100.5       100.5       100.5       100.5       100.5       100.5       100.6    
        100.6       100.6       100.6       100.6       100.6       100.6       100.6       100.6       100.6       100.6    
        100.6       100.6       100.6       100.6       100.6       100.6       100.6       100.6       100.6       100.6    
        100.6       100.6       100.6       100.6       100.6       100.6       100.6       100.6       100.6       100.6    
        100.6       100.6       100.6       100.6       100.6       100.6       100.6       100.6       100.6       100.6    
        100.6       100.6       100.6       100.6       100.6       100.6       100.6       100.6       100.6       100.6    
        100.6       100.6       100.6       100.6       100.6       100.6       100.6       100.6       100.6       100.6    
        100.6       100.6       100.5       100.5       100.5       100.5       100.5       100.5       100.5       100.5    
        100.5       100.5       100.4       100.4       100.4       100.4       100.4       100.4       100.4       100.4    
        100.4    
  91    100.4       100.4       100.4       100.4       100.4       100.4       100.4       100.4       100.4       100.4    
        100.5       100.5       100.5       100.5       100.5       100.5       100.5       100.5       100.5       100.5    
        100.6       100.6       100.6       100.6       100.6       100.6       100.6       100.6       100.6       100.6    
        100.6       100.6       100.6       100.6       100.6       100.6       100.6       100.6       100.6       100.6    
        100.6       100.6       100.6       100.6       100.6       100.6       100.6       100.6       100.6       100.6    
        100.6       100.6       100.6       100.6       100.6       100.6       100.6       100.6       100.6       100.6    
        100.6       100.6       100.6       100.6       100.6       100.6       100.6       100.6       100.6       100.6    
        100.6       100.6       100.6       100.6       100.6       100.6       100.6       100.6       100.6       100.6    
        100.6       100.5       100.5       100.5       100.5       100.5       100.5       100.5       100.5       100.5    
        100.5       100.4       100.4       100.4       100.4       100.4       100.4       100.4       100.4       100.4    
        100.4    
  92    100.4       100.4       100.4       100.4       100.4       100.4       100.4       100.4       100.4       100.4    
        100.5       100.5       100.5       100.5       100.5       100.5       100.5       100.5       100.5       100.5    
        100.5       100.6       100.6       100.6       100.6       100.6       100.6       100.6       100.6       100.6    
        100.6       100.6       100.6       100.6       100.6       100.6       100.6       100.6       100.6       100.6    
        100.6       100.6       100.6       100.6       100.6       100.6       100.6       100.6       100.6       100.6    
        100.6       100.6       100.6       100.6       100.6       100.6       100.6       100.6       100.6       100.6    
        100.6       100.6       100.6       100.6       100.6       100.6       100.6       100.6       100.6       100.6    
        100.6       100.6       100.6       100.6       100.6       100.6       100.6       100.6       100.6       100.6    
        100.5       100.5       100.5       100.5       100.5       100.5       100.5       100.5       100.5       100.5    
        100.5       100.4       100.4       100.4       100.4       100.4       100.4       100.4       100.4       100.4    
        100.4    
  93    100.4       100.4       100.4       100.4       100.4       100.4       100.4       100.4       100.4       100.4    
        100.4       100.5       100.5       100.5       100.5       100.5       100.5       100.5       100.5       100.5    
        100.5       100.5       100.6       100.6       100.6       100.6       100.6       100.6       100.6       100.6    
        100.6       100.6       100.6       100.6       100.6       100.6       100.6       100.6       100.6       100.6    
        100.6       100.6       100.6       100.6       100.6       100.6       100.6       100.6       100.6       100.6    
        100.6       100.6       100.6       100.6       100.6       100.6       100.6       100.6       100.6       100.6    
        100.6       100.6       100.6       100.6       100.6       100.6       100.6       100.6       100.6       100.6    
        100.6       100.6       100.6       100.6       100.6       100.6       100.6       100.6       100.6       100.5    
        100.5       100.5       100.5       100.5       100.5       100.5       100.5       100.5       100.5       100.5    
        100.4       100.4       100.4       100.4       100.4       100.4       100.4       100.4       100.4       100.4    
        100.4    
  94    100.4       100.4       100.4       100.4       100.4       100.4       100.4       100.4       100.4       100.4    
        100.4       100.5       100.5       100.5       100.5       100.5       100.5       100.5       100.5       100.5    
        100.5       100.5       100.5       100.5       100.6       100.6       100.6       100.6       100.6       100.6    
        100.6       100.6       100.6       100.6       100.6       100.6       100.6       100.6       100.6       100.6    
        100.6       100.6       100.6       100.6       100.6       100.6       100.6       100.6       100.6       100.6    
        100.6       100.6       100.6       100.6       100.6       100.6       100.6       100.6       100.6       100.6    
        100.6       100.6       100.6       100.6       100.6       100.6       100.6       100.6       100.6       100.6    
        100.6       100.6       100.6       100.6       100.6       100.6       100.6       100.5       100.5       100.5    
        100.5       100.5       100.5       100.5       100.5       100.5       100.5       100.5       100.5       100.5    
        100.4       100.4       100.4       100.4       100.4       100.4       100.4       100.4       100.4       100.4    
        100.4    
  95    100.4       100.4       100.4       100.4       100.4       100.4       100.4       100.4       100.4       100.4    
        100.4       100.4       100.5       100.5       100.5       100.5       100.5       100.5       100.5       100.5    
        100.5       100.5       100.5       100.5       100.5       100.6       100.6       100.6       100.6       100.6    
        100.6       100.6       100.6       100.6       100.6       100.6       100.6       100.6       100.6       100.6    
        100.6       100.6       100.6       100.6       100.6       100.6       100.6       100.6       100.6       100.6    
        100.6       100.6       100.6       100.6       100.6       100.6       100.6       100.6       100.6       100.6    
        100.6       100.6       100.6       100.6       100.6       100.6       100.6       100.6       100.6       100.6    
        100.6       100.6       100.6       100.6       100.6       100.6       100.5       100.5       100.5       100.5    
        100.5       100.5       100.5       100.5       100.5       100.5       100.5       100.5       100.5       100.4    
        100.4       100.4       100.4       100.4       100.4       100.4       100.4       100.4       100.4       100.4    
        100.4    
  96    100.4       100.4       100.4       100.4       100.4       100.4       100.4       100.4       100.4       100.4    
        100.4       100.4       100.4       100.5       100.5       100.5       100.5       100.5       100.5       100.5    
        100.5       100.5       100.5       100.5       100.5       100.5       100.5       100.6       100.6       100.6    
        100.6       100.6       100.6       100.6       100.6       100.6       100.6       100.6       100.6       100.6    
        100.6       100.6       100.6       100.6       100.6       100.6       100.6       100.6       100.6       100.6    
        100.6       100.6       100.6       100.6       100.6       100.6       100.6       100.6       100.6       100.6    
        100.6       100.6       100.6       100.6       100.6       100.6       100.6       100.6       100.6       100.6    
        100.6       100.6       100.6       100.6       100.5       100.5       100.5       100.5       100.5       100.5    
        100.5       100.5       100.5       100.5       100.5       100.5       100.5       100.5       100.4       100.4    
        100.4       100.4       100.4       100.4       100.4       100.4       100.4       100.4       100.4       100.4    
        100.4    
  97    100.3       100.4       100.4       100.4       100.4       100.4       100.4       100.4       100.4       100.4    
        100.4       100.4       100.4       100.4       100.5       100.5       100.5       100.5       100.5       100.5    
        100.5       100.5       100.5       100.5       100.5       100.5       100.5       100.5       100.5       100.5    
        100.6       100.6       100.6       100.6       100.6       100.6       100.6       100.6       100.6       100.6    
        100.6       100.6       100.6       100.6       100.6       100.6       100.6       100.6       100.6       100.6    
        100.6       100.6       100.6       100.6       100.6       100.6       100.6       100.6       100.6       100.6    
        100.6       100.6       100.6       100.6       100.6       100.6       100.6       100.6       100.6       100.6    
        100.6       100.5       100.5       100.5       100.5       100.5       100.5       100.5       100.5       100.5    
        100.5       100.5       100.5       100.5       100.5       100.5       100.5       100.4       100.4       100.4    
        100.4       100.4       100.4       100.4       100.4       100.4       100.4       100.4       100.4       100.4    
        100.3    
  98    100.3       100.3       100.4       100.4       100.4       100.4       100.4       100.4       100.4       100.4    
        100.4       100.4       100.4       100.4       100.5       100.5       100.5       100.5       100.5       100.5    
        100.5       100.5       100.5       100.5       100.5       100.5       100.5       100.5       100.5       100.5    
        100.5       100.5       100.6       100.6       100.6       100.6       100.6       100.6       100.6       100.6    
        100.6       100.6       100.6       100.6       100.6       100.6       100.6       100.6       100.6       100.6    
        100.6       100.6       100.6       100.6       100.6       100.6       100.6       100.6       100.6       100.6    
        100.6       100.6       100.6       100.6       100.6       100.6       100.6       100.6       100.6       100.5    
        100.5       100.5       100.5       100.5       100.5       100.5       100.5       100.5       100.5       100.5    
        100.5       100.5       100.5       100.5       100.5       100.5       100.5       100.4       100.4       100.4    
        100.4       100.4       100.4       100.4       100.4       100.4       100.4       100.4       100.4       100.3    
        100.3    
  99    100.3       100.3       100.3       100.4       100.4       100.4       100.4       100.4       100.4       100.4    
        100.4       100.4       100.4       100.4       100.4       100.5       100.5       100.5       100.5       100.5    
        100.5       100.5       100.5       100.5       100.5       100.5       100.5       100.5       100.5       100.5    
        100.5       100.5       100.5       100.5       100.6       100.6       100.6       100.6       100.6       100.6    
        100.6       100.6       100.6       100.6       100.6       100.6       100.6       100.6       100.6       100.6    
        100.6       100.6       100.6       100.6       100.6       100.6       100.6       100.6       100.6       100.6    
        100.6       100.6       100.6       100.6       100.6       100.6       100.6       100.5       100.5       100.5    
        100.5       100.5       100.5       100.5       100.5       100.5       100.5       100.5       100.5       100.5    
        100.5       100.5       100.5       100.5       100.5       100.5       100.4       100.4       100.4       100.4    
        100.4       100.4       100.4       100.4       100.4       100.4       100.4       100.4       100.3       100.3    
        100.3    
 100    100.3       100.3       100.3       100.3       100.4       100.4       100.4       100.4       100.4       100.4    
        100.4       100.4       100.4       100.4       100.4       100.5       100.5       100.5       100.5       100.5    
        100.5       100.5       100.5       100.5       100.5       100.5       100.5       100.5       100.5       100.5    
        100.5       100.5       100.5       100.5       100.5       100.5       100.5       100.6       100.6       100.6    
        100.6       100.6       100.6       100.6       100.6       100.6       100.6       100.6       100.6       100.6    
        100.6       100.6       100.6       100.6       100.6       100.6       100.6       100.6       100.6       100.6    
        100.6       100.6       100.6       100.6       100.5       100.5       100.5       100.5       100.5       100.5    
        100.5       100.5       100.5       100.5       100.5       100.5       100.5       100.5       100.5       100.5    
        100.5       100.5       100.5       100.5       100.5       100.5       100.4       100.4       100.4       100.4    
        100.4       100.4       100.4       100.4       100.4       100.4       100.4       100.3       100.3       100.3    
        100.3    
 101    100.3       100.3       100.3       100.3       100.4       100.4       100.4       100.4       100.4       100.4    
        100.4       100.4       100.4       100.4       100.4       100.4       100.5       100.5       100.5       100.5    
        100.5       100.5       100.5       100.5       100.5       100.5       100.5       100.5       100.5       100.5    
        100.5       100.5       100.5       100.5       100.5       100.5       100.5       100.5       100.6       100.6    
        100.6       100.6       100.6       100.6       100.6       100.6       100.6       100.6       100.6       100.6    
        100.6       100.6       100.6       100.6       100.6       100.6       100.6       100.6       100.6       100.6    
        100.6       100.6       100.6       100.5       100.5       100.5       100.5       100.5       100.5       100.5    
        100.5       100.5       100.5       100.5       100.5       100.5       100.5       100.5       100.5       100.5    
        100.5       100.5       100.5       100.5       100.5       100.4       100.4       100.4       100.4       100.4    
        100.4       100.4       100.4       100.4       100.4       100.4       100.4       100.3       100.3       100.3    
        100.3    

 HEAD WILL BE SAVED ON UNIT 1016 AT END OF TIME STEP    1, STRESS PERIOD    1


  VOLUME BUDGET FOR ENTIRE MODEL AT END OF TIME STEP    1, STRESS PERIOD   1
  ---------------------------------------------------------------------------------------------------

     CUMULATIVE VOLUME      L**3       RATES FOR THIS TIME STEP      L**3/T          PACKAGE NAME    
     ------------------                 ------------------------                     ----------------

           IN:                                      IN:
           ---                                      ---
              STO-SS =         119.0689                STO-SS =         119.0689     STORAGE                          
              STO-SY =           0.0000                STO-SY =           0.0000     STORAGE                          
                 WEL =           0.0000                   WEL =           0.0000     WEL_0                            
                RCHA =        1529.6052                  RCHA =        1529.6052     RCH                              
                 CHD =         819.6583                   CHD =         819.6583     CHD_0                            

            TOTAL IN =        2468.3324              TOTAL IN =        2468.3324

          OUT:                                     OUT:
          ----                                     ----
              STO-SS =          13.8743                STO-SS =          13.8743     STORAGE                          
              STO-SY =           0.0000                STO-SY =           0.0000     STORAGE                          
                 WEL =        2196.7205                   WEL =        2196.7205     WEL_0                            
                RCHA =           0.0000                  RCHA =           0.0000     RCH                              
                 CHD =         261.0733                   CHD =         261.0733     CHD_0                            

           TOTAL OUT =        2471.6680             TOTAL OUT =        2471.6680

            IN - OUT =          -3.3356              IN - OUT =          -3.3356

 PERCENT DISCREPANCY =          -0.14     PERCENT DISCREPANCY =          -0.14




         TIME SUMMARY AT END OF TIME STEP    1 IN STRESS PERIOD    1
                    SECONDS     MINUTES      HOURS       DAYS        YEARS
                    -----------------------------------------------------------
   TIME STEP LENGTH  86400.      1440.0      24.000      1.0000     2.73785E-03
 STRESS PERIOD TIME  86400.      1440.0      24.000      1.0000     2.73785E-03
         TOTAL TIME  86400.      1440.0      24.000      1.0000     2.73785E-03


end timestep

