                                   MODFLOW 6
                U.S. GEOLOGICAL SURVEY MODULAR HYDROLOGIC MODEL
                          GROUNDWATER FLOW MODEL (GWF)
                        VERSION 6.4.1 Release 12/09/2022

   MODFLOW 6 compiled Dec 09 2022 18:18:37 with Intel(R) Fortran Intel(R) 64
   Compiler Classic for applications running on Intel(R) 64, Version 2021.7.0
                             Build 20220726_000000

This software has been approved for release by the U.S. Geological 
Survey (USGS). Although the software has been subjected to rigorous 
review, the USGS reserves the right to update the software as needed 
pursuant to further analysis and review. No warranty, expressed or 
implied, is made by the USGS or the U.S. Government as to the 
functionality of the software and related material nor shall the 
fact of release constitute any such warranty. Furthermore, the 
software is released on condition that neither the USGS nor the U.S. 
Government shall be held liable for any damages resulting from its 
authorized or unauthorized use. Also refer to the USGS Water 
Resources Software User Rights Notice for complete use, copyright, 
and distribution information.


As a work of the United States Government, this USGS product is 
in the public domain within the United States. You can copy, 
modify, distribute, and perform the work, even for commercial 
purposes, all without asking permission. Additionally, USGS 
waives copyright and related rights in the work worldwide 
through CC0 1.0 Universal Public Domain Dedication 
(https://creativecommons.org/publicdomain/zero/1.0/).

The following GNU Lesser General Public License (LGPL) libraries
are used in this USGS product:

    SPARSKIT version 2.0
      ilut, luson, and qsplit 
      (https://www-users.cse.umn.edu/~saad/software/SPARSKIT/)

    RCM - Reverse Cuthill McKee Ordering
      (https://people.math.sc.edu/Burkardt/f_src/rcm/rcm.html)

    BLAS - Basic Linear Algebra Subprograms Level 1
      (https://people.math.sc.edu/Burkardt/f_src/blas1_d/blas1_d.html)

    SPARSEKIT - Sparse Matrix Utility Package
      amux, dperm, dvperm, rperm, and cperm
      (https://people.sc.fsu.edu/~jburkardt/f77_src/sparsekit/sparsekit.html)

The following BSD-3 License libraries are used in this USGS product:

    Modern Fortran DAG Library
      Copyright (c) 2018, Jacob Williams
      All rights reserved.
      (https://github.com/jacobwilliams/daglib)

MODFLOW 6 compiler options: /Isrc\libmf6core.a.p /Isrc /I..\src
/Isrc\libmf6_external.a.p /MTd /nologo /warn:general /warn:truncated_source
/stand:f08 /Zi /traceback /O2 /fpe:0 /heap-arrays:0 /traceback /fpp
/Qdiag-disable:7416 /Qdiag-disable:7025 /Qdiag-disable:5268
/Fdsrc\libmf6core.a.p\Utilities_compilerversion.F90.pdb
/module:src\libmf6core.a.p
/Fosrc/libmf6core.a.p/Utilities_compilerversion.F90.obj /c

System command used to initiate simulation:
"C:\Users\ksil8584\OneDrive - The University of Sydney (Staff)\Documents\Modflow\mf6.4.1\bin\mf6.exe"

MODFLOW was compiled using uniform precision.

Real Variables
  KIND: 8
  TINY (smallest non-zero value):    2.225074-308
  HUGE (largest value):    1.797693+308
  PRECISION: 15
  SIZE IN BITS: 64

Integer Variables
  KIND: 4
  HUGE (largest value): 2147483647
  SIZE IN BITS: 32

Long Integer Variables
  KIND: 8
  HUGE (largest value): 9223372036854775807
  SIZE IN BITS: 64

Logical Variables
  KIND: 4
  SIZE IN BITS: 32
 

 OPENED FloPy_ModelS_T1b.dis
 FILE TYPE:DIS6                   UNIT 1005   STATUS:OLD                 
 FORMAT:FORMATTED              ACCESS:SEQUENTIAL          
 ACTION:READ                


 OPENED FloPy_ModelS_T1b.ic
 FILE TYPE:IC6                    UNIT 1006   STATUS:OLD                 
 FORMAT:FORMATTED              ACCESS:SEQUENTIAL          
 ACTION:READ                


 OPENED FloPy_ModelS_T1b.npf
 FILE TYPE:NPF6                   UNIT 1007   STATUS:OLD                 
 FORMAT:FORMATTED              ACCESS:SEQUENTIAL          
 ACTION:READ                


 OPENED FloPy_ModelS_T1b.sto
 FILE TYPE:STO6                   UNIT 1008   STATUS:OLD                 
 FORMAT:FORMATTED              ACCESS:SEQUENTIAL          
 ACTION:READ                


 OPENED FloPy_ModelS_T1b.chd
 FILE TYPE:CHD6                   UNIT 1009   STATUS:OLD                 
 FORMAT:FORMATTED              ACCESS:SEQUENTIAL          
 ACTION:READ                


 OPENED FloPy_ModelS_T1b.oc
 FILE TYPE:OC6                    UNIT 1010   STATUS:OLD                 
 FORMAT:FORMATTED              ACCESS:SEQUENTIAL          
 ACTION:READ                


 OPENED FloPy_ModelS_T1b.wel
 FILE TYPE:WEL6                   UNIT 1011   STATUS:OLD                 
 FORMAT:FORMATTED              ACCESS:SEQUENTIAL          
 ACTION:READ                


 OPENED FloPy_ModelS_T1b.rcha
 FILE TYPE:RCH6                   UNIT 1012   STATUS:OLD                 
 FORMAT:FORMATTED              ACCESS:SEQUENTIAL          
 ACTION:READ                

 NAMEFILE OPTIONS:
    FLOWS WILL BE SAVED TO BUDGET FILE SPECIFIED IN OUTPUT CONTROL
    NEWTON-RAPHSON method enabled for the model.
    NEWTON-RAPHSON UNDER-RELAXATION based on the bottom elevation of the model will be applied to the model.

 DIS -- STRUCTURED GRID DISCRETIZATION PACKAGE, VERSION 2 : 3/27/2014 - INPUT READ FROM UNIT 1005

 Loading input for FLOPY_MODELS_T1B/DIS
 # File generated by Flopy version 3.3.6 on 06/29/2023 at 08:38:26.
   NLAY = 10
   NROW = 101
   NCOL = 101
   DELR = 4.000000000000000
   DELC = 4.000000000000000
   TOP = .000000000000000
   BOTM = variable 3D double precision array ranging from -50.00000000000000 to -5.000000000000000
 Loading input complete...


 NPF -- NODE PROPERTY FLOW PACKAGE, VERSION 1, 3/30/2015 INPUT READ FROM UNIT 1007

 Loading input for FLOPY_MODELS_T1B/NPF
 # File generated by Flopy version 3.3.6 on 06/29/2023 at 08:38:27.
   ICELLTYPE = 1
   K = 1.275628500000000
 Loading input complete...

 Setting Discretization Options
 End Setting Discretization Options

 Setting Discretization Dimensions
    NLAY = 10
    NROW = 101
    NCOL = 101
 End Setting Discretization Dimensions

 Setting Discretization Griddata
    DELR set from input file
    DELC set from input file
    TOP set from input file
    BOTM set from input file
 End Setting Discretization Griddata

 Setting NPF Options
 End Setting NPF Options

 Setting NPF Griddata
    ICELLTYPE set from input file
    K set from input file
    K33 not provided.  Setting K33 = K.
    K22 not provided.  Setting K22 = K.
 End Setting NPF Griddata


 WEL   -- WEL PACKAGE, VERSION 8, 2/22/2014 INPUT READ FROM UNIT 1011
 # File generated by Flopy version 3.3.6 on 06/29/2023 at 08:38:27.

 PROCESSING WEL OPTIONS
 END OF WEL OPTIONS

 PROCESSING WEL DIMENSIONS
    MAXBOUND =       2
 END OF WEL DIMENSIONS

 RCH   -- RCH PACKAGE, VERSION 8, 2/22/2014 INPUT READ FROM UNIT 1012
 # File generated by Flopy version 3.3.6 on 06/29/2023 at 08:38:27.

 PROCESSING RCH OPTIONS
    RECHARGE INPUT WILL BE READ AS ARRAY(S).
 END OF RCHA OPTIONS

 CHD   -- CHD PACKAGE, VERSION 8, 2/22/2014 INPUT READ FROM UNIT 1009
 # File generated by Flopy version 3.3.6 on 06/29/2023 at 08:38:27.

 PROCESSING CHD OPTIONS
 END OF CHD OPTIONS

 PROCESSING CHD DIMENSIONS
    MAXBOUND =     299
 END OF CHD DIMENSIONS

 IC -- INITIAL CONDITIONS PACKAGE, VERSION 8, 3/28/2015 INPUT READ FROM UNIT 1006
 # File generated by Flopy version 3.3.6 on 06/29/2023 at 08:38:26.
 PROCESSING GRIDDATA
 END PROCESSING GRIDDATA

 STO -- STORAGE PACKAGE, VERSION 1, 5/19/2014 INPUT READ FROM UNIT 1008


 # File generated by Flopy version 3.3.6 on 06/29/2023 at 08:38:27.
 PROCESSING STORAGE OPTIONS
 END OF STORAGE OPTIONS
 PROCESSING GRIDDATA

                 ICONVERT = 1

         SPECIFIC STORAGE =  0.1000000E-04

           SPECIFIC YIELD =  0.1500000    
 END PROCESSING GRIDDATA
    BINARY GRID INFORMATION WILL BE WRITTEN TO:
      UNIT NUMBER: 1014
      FILE NAME: C:\Users\ksil8584\OneDrive - The University of Sydney (Staff)\Documents\Modflow\FloPy models\FP_ModelS_3\output_q_900-1100_r_005-01\FloPy_ModelS_T1b.dis.grb

 OPENED C:\Users\ksil8584\OneDrive - The University of Sydney (Staff)\Documents\Modflow\FloPy models\FP_ModelS_3\output_q_900-1100_r_005-01\FloPy_ModelS_T1b.dis.grb
 FILE TYPE:DATA(BINARY)   UNIT 1014   STATUS:REPLACE             
 FORMAT:UNFORMATTED            ACCESS:STREAM              
 ACTION:READWRITE           

      THE LAST TIME STEP WILL BE PRINTED
      THE LAST TIME STEP WILL BE PRINTED
 # File generated by Flopy version 3.3.6 on 06/29/2023 at 08:38:27.

 PROCESSING OC OPTIONS

    BUDGET INFORMATION WILL BE WRITTEN TO:
      UNIT NUMBER: 1015
      FILE NAME: FloPy_ModelS_T1b.cbb

 OPENED FloPy_ModelS_T1b.cbb
 FILE TYPE:DATA(BINARY)   UNIT 1015   STATUS:REPLACE             
 FORMAT:UNFORMATTED            ACCESS:STREAM              
 ACTION:READWRITE           

    HEAD INFORMATION WILL BE WRITTEN TO:
      UNIT NUMBER: 1016
      FILE NAME: FloPy_ModelS_T1b.hds

 OPENED FloPy_ModelS_T1b.hds
 FILE TYPE:DATA(BINARY)   UNIT 1016   STATUS:REPLACE             
 FORMAT:UNFORMATTED            ACCESS:STREAM              
 ACTION:READWRITE           

 END OF OC OPTIONS

start timestep kper="1" kstp="1" mode="normal"


 BEGIN READING OUTPUT CONTROL FOR STRESS PERIOD 1
      ALL TIME STEPS WILL BE SAVED
      ALL TIME STEPS WILL BE SAVED
      THE LAST TIME STEP WILL BE PRINTED

 END READING OUTPUT CONTROL FOR STRESS PERIOD 1


 STRESS PERIOD 1 IS TRANSIENT


                 RECHARGE =  0.5990510E-02
 UBDSV1 SAVING           STO-SS ON UNIT   1015 AT TIME STEP      1, STRESS PERIOD      1
 UBDSV1 SAVING           STO-SY ON UNIT   1015 AT TIME STEP      1, STRESS PERIOD      1
 UBDSV1 SAVING     FLOW-JA-FACE ON UNIT   1015 AT TIME STEP      1, STRESS PERIOD      1
 UBDSV06 SAVING              WEL IN MODEL FLOPY_MODELS_T1B PACKAGE FLOPY_MODELS_T1BCONNECTED TO MODEL FLOPY_MODELS_T1B PACKAGE WEL_0            ON UNIT   1015 AT TIME STEP      1, STRESS PERIOD      1
 UBDSV06 SAVING             RCHA IN MODEL FLOPY_MODELS_T1B PACKAGE FLOPY_MODELS_T1BCONNECTED TO MODEL FLOPY_MODELS_T1B PACKAGE RCH              ON UNIT   1015 AT TIME STEP      1, STRESS PERIOD      1
 UBDSV06 SAVING              CHD IN MODEL FLOPY_MODELS_T1B PACKAGE FLOPY_MODELS_T1BCONNECTED TO MODEL FLOPY_MODELS_T1B PACKAGE CHD_0            ON UNIT   1015 AT TIME STEP      1, STRESS PERIOD      1
1
  HEAD IN LAYER   1 AT END OF TIME STEP   1 IN STRESS PERIOD    1
  ---------------------------------------------------------------------------

            1           2           3           4           5           6           7           8           9          10
           11          12          13          14          15          16          17          18          19          20
           21          22          23          24          25          26          27          28          29          30
           31          32          33          34          35          36          37          38          39          40
           41          42          43          44          45          46          47          48          49          50
           51          52          53          54          55          56          57          58          59          60
           61          62          63          64          65          66          67          68          69          70
           71          72          73          74          75          76          77          78          79          80
           81          82          83          84          85          86          87          88          89          90
           91          92          93          94          95          96          97          98          99         100
          101
 ........................................................................................................................
   1    99.43       100.0       100.0       100.0       100.0       100.0       100.0       100.0       100.0       100.0    
        100.0       100.0       100.0       100.0       100.0       100.0       100.0       100.0       100.0       100.0    
        100.0       100.0       100.0       100.0       100.0       100.0       100.0       100.0       100.0       100.0    
        100.0       100.0       100.0       100.0       100.0       100.0       100.0       100.0       100.0       100.0    
        100.0       100.0       100.0       100.0       100.0       100.0       100.0       100.0       100.0       100.0    
        100.0       100.0       100.0       100.0       100.0       100.0       100.0       100.0       100.0       100.0    
        100.0       100.0       100.0       100.0       100.0       100.0       100.0       100.0       100.0       100.0    
        100.0       100.0       100.0       100.0       100.0       100.0       100.0       100.0       100.0       100.0    
        100.0       100.0       100.0       100.0       100.0       100.0       100.0       100.0       100.0       100.0    
        100.0       100.0       100.0       100.0       100.0       100.0       100.0       100.0       100.0       100.0    
        100.0    
   2    99.11       99.26       99.31       99.32       99.33       99.33       99.33       99.32       99.32       99.31    
        99.31       99.30       99.29       99.29       99.28       99.27       99.27       99.26       99.25       99.25    
        99.24       99.24       99.24       99.24       99.24       99.24       99.24       99.24       99.24       99.25    
        99.25       99.26       99.27       99.27       99.28       99.29       99.30       99.31       99.32       99.33    
        99.34       99.34       99.35       99.36       99.37       99.37       99.38       99.38       99.39       99.39    
        99.40       99.40       99.40       99.40       99.40       99.40       99.40       99.40       99.40       99.39    
        99.39       99.39       99.39       99.38       99.38       99.38       99.37       99.37       99.37       99.37    
        99.37       99.37       99.38       99.38       99.38       99.39       99.40       99.41       99.42       99.43    
        99.44       99.45       99.47       99.48       99.50       99.51       99.53       99.55       99.57       99.58    
        99.60       99.62       99.64       99.66       99.69       99.71       99.74       99.77       99.81       99.88    
        100.0    
   3    98.80       98.85       98.87       98.89       98.89       98.89       98.89       98.88       98.87       98.86    
        98.85       98.84       98.83       98.82       98.81       98.80       98.79       98.78       98.77       98.76    
        98.75       98.74       98.74       98.74       98.73       98.73       98.74       98.74       98.75       98.75    
        98.76       98.77       98.79       98.80       98.81       98.83       98.84       98.86       98.87       98.89    
        98.90       98.91       98.93       98.94       98.95       98.96       98.97       98.98       98.99       99.00    
        99.00       99.00       99.01       99.01       99.01       99.01       99.01       99.00       99.00       99.00    
        98.99       98.99       98.98       98.98       98.97       98.97       98.96       98.96       98.96       98.96    
        98.96       98.96       98.96       98.97       98.98       98.99       99.00       99.01       99.03       99.05    
        99.07       99.09       99.11       99.14       99.17       99.19       99.22       99.25       99.28       99.31    
        99.34       99.38       99.41       99.45       99.48       99.52       99.57       99.63       99.70       99.81    
        100.0    
   4    98.54       98.55       98.57       98.57       98.57       98.57       98.57       98.56       98.55       98.54    
        98.52       98.51       98.49       98.48       98.46       98.45       98.43       98.42       98.41       98.39    
        98.38       98.38       98.37       98.37       98.36       98.36       98.37       98.37       98.38       98.39    
        98.40       98.42       98.43       98.45       98.47       98.49       98.51       98.52       98.54       98.56    
        98.58       98.60       98.62       98.64       98.65       98.66       98.68       98.69       98.70       98.71    
        98.71       98.72       98.72       98.72       98.72       98.72       98.72       98.72       98.71       98.71    
        98.70       98.69       98.69       98.68       98.67       98.67       98.66       98.66       98.65       98.65    
        98.65       98.65       98.66       98.67       98.68       98.69       98.70       98.72       98.74       98.77    
        98.79       98.82       98.85       98.89       98.92       98.96       98.99       99.03       99.07       99.11    
        99.15       99.20       99.24       99.29       99.34       99.39       99.45       99.53       99.63       99.77    
        100.0    
   5    98.32       98.32       98.33       98.33       98.33       98.32       98.31       98.30       98.29       98.28    
        98.26       98.24       98.22       98.20       98.19       98.17       98.15       98.13       98.12       98.10    
        98.09       98.08       98.07       98.07       98.06       98.06       98.07       98.07       98.08       98.10    
        98.11       98.13       98.15       98.17       98.19       98.21       98.24       98.26       98.28       98.31    
        98.33       98.35       98.37       98.39       98.41       98.43       98.44       98.46       98.47       98.48    
        98.49       98.49       98.50       98.50       98.50       98.50       98.49       98.49       98.48       98.48    
        98.47       98.46       98.45       98.44       98.43       98.42       98.42       98.41       98.41       98.40    
        98.40       98.41       98.41       98.42       98.43       98.45       98.46       98.49       98.51       98.54    
        98.57       98.61       98.64       98.68       98.72       98.77       98.81       98.86       98.90       98.95    
        99.00       99.06       99.11       99.16       99.22       99.29       99.36       99.45       99.57       99.74    
        100.0    
   6    98.13       98.13       98.13       98.13       98.12       98.11       98.10       98.09       98.07       98.06    
        98.04       98.02       98.00       97.97       97.95       97.93       97.91       97.89       97.87       97.85    
        97.84       97.82       97.81       97.81       97.80       97.81       97.81       97.82       97.83       97.84    
        97.86       97.88       97.90       97.93       97.95       97.98       98.01       98.03       98.06       98.09    
        98.12       98.14       98.17       98.19       98.21       98.23       98.25       98.26       98.28       98.29    
        98.30       98.30       98.31       98.31       98.31       98.31       98.30       98.30       98.29       98.28    
        98.27       98.26       98.25       98.24       98.23       98.22       98.21       98.20       98.19       98.19    
        98.19       98.19       98.20       98.20       98.22       98.23       98.25       98.28       98.31       98.34    
        98.38       98.42       98.46       98.50       98.55       98.60       98.65       98.71       98.76       98.82    
        98.88       98.93       99.00       99.06       99.13       99.20       99.29       99.39       99.53       99.71    
        100.0    
   7    97.96       97.96       97.96       97.95       97.94       97.93       97.92       97.90       97.89       97.86    
        97.84       97.82       97.79       97.77       97.74       97.72       97.69       97.67       97.65       97.63    
        97.61       97.59       97.58       97.57       97.57       97.57       97.58       97.59       97.60       97.61    
        97.63       97.66       97.68       97.71       97.74       97.77       97.80       97.83       97.87       97.90    
        97.93       97.96       97.98       98.01       98.03       98.06       98.08       98.09       98.11       98.12    
        98.13       98.14       98.14       98.14       98.14       98.14       98.14       98.13       98.12       98.11    
        98.10       98.09       98.07       98.06       98.04       98.03       98.02       98.01       98.00       98.00    
        97.99       97.99       98.00       98.01       98.02       98.04       98.06       98.09       98.12       98.16    
        98.20       98.24       98.29       98.34       98.40       98.45       98.51       98.57       98.63       98.70    
        98.76       98.83       98.90       98.97       99.05       99.13       99.23       99.34       99.49       99.69    
        100.0    
   8    97.81       97.81       97.80       97.79       97.78       97.77       97.75       97.74       97.71       97.69    
        97.67       97.64       97.61       97.58       97.55       97.52       97.49       97.47       97.44       97.42    
        97.40       97.38       97.37       97.36       97.35       97.35       97.36       97.37       97.38       97.40    
        97.43       97.45       97.48       97.51       97.55       97.58       97.62       97.65       97.69       97.72    
        97.76       97.79       97.82       97.85       97.88       97.90       97.92       97.94       97.96       97.97    
        97.98       97.99       97.99       98.00       97.99       97.99       97.98       97.98       97.97       97.95    
        97.94       97.92       97.91       97.89       97.88       97.86       97.85       97.83       97.82       97.82    
        97.81       97.81       97.82       97.82       97.84       97.86       97.88       97.91       97.95       97.99    
        98.03       98.08       98.14       98.19       98.25       98.32       98.38       98.45       98.52       98.59    
        98.66       98.73       98.81       98.89       98.97       99.06       99.17       99.29       99.45       99.67    
        100.0    
   9    97.67       97.66       97.66       97.65       97.64       97.62       97.60       97.58       97.56       97.53    
        97.50       97.47       97.44       97.41       97.37       97.34       97.31       97.28       97.25       97.22    
        97.20       97.18       97.16       97.15       97.14       97.14       97.15       97.16       97.18       97.20    
        97.23       97.26       97.29       97.32       97.36       97.40       97.44       97.48       97.52       97.56    
        97.60       97.64       97.67       97.70       97.73       97.76       97.78       97.80       97.82       97.83    
        97.85       97.85       97.86       97.86       97.86       97.85       97.85       97.84       97.82       97.81    
        97.79       97.78       97.76       97.74       97.72       97.70       97.68       97.67       97.65       97.64    
        97.64       97.63       97.64       97.65       97.66       97.68       97.71       97.74       97.78       97.82    
        97.87       97.93       97.99       98.05       98.12       98.18       98.26       98.33       98.40       98.48    
        98.56       98.64       98.72       98.81       98.90       99.00       99.12       99.25       99.42       99.65    
        100.0    
  10    97.54       97.53       97.53       97.51       97.50       97.48       97.46       97.44       97.41       97.38    
        97.35       97.31       97.28       97.24       97.20       97.16       97.13       97.09       97.06       97.03    
        97.00       96.98       96.96       96.95       96.94       96.94       96.95       96.96       96.98       97.00    
        97.03       97.07       97.10       97.14       97.19       97.23       97.28       97.32       97.36       97.41    
        97.45       97.49       97.53       97.56       97.60       97.62       97.65       97.67       97.69       97.71    
        97.72       97.73       97.73       97.73       97.73       97.73       97.72       97.71       97.69       97.67    
        97.65       97.63       97.61       97.59       97.57       97.54       97.52       97.50       97.49       97.47    
        97.46       97.46       97.46       97.47       97.48       97.51       97.53       97.57       97.61       97.66    
        97.71       97.77       97.84       97.91       97.98       98.06       98.14       98.22       98.30       98.38    
        98.47       98.55       98.64       98.74       98.84       98.94       99.06       99.21       99.38       99.63    
        100.0    
  11    97.41       97.41       97.40       97.39       97.37       97.35       97.33       97.30       97.27       97.24    
        97.20       97.16       97.12       97.08       97.04       97.00       96.95       96.91       96.87       96.84    
        96.81       96.78       96.76       96.75       96.74       96.74       96.75       96.76       96.78       96.81    
        96.84       96.88       96.92       96.97       97.02       97.06       97.11       97.16       97.21       97.26    
        97.31       97.35       97.39       97.43       97.47       97.50       97.53       97.55       97.57       97.59    
        97.60       97.61       97.61       97.61       97.61       97.60       97.59       97.58       97.56       97.55    
        97.52       97.50       97.47       97.45       97.42       97.39       97.37       97.35       97.32       97.31    
        97.30       97.29       97.29       97.30       97.31       97.33       97.36       97.40       97.45       97.50    
        97.56       97.62       97.69       97.77       97.85       97.93       98.02       98.10       98.19       98.28    
        98.38       98.47       98.57       98.67       98.77       98.89       99.02       99.17       99.35       99.61    
        100.0    
  12    97.30       97.29       97.28       97.27       97.25       97.23       97.20       97.18       97.14       97.10    
        97.06       97.02       96.98       96.93       96.88       96.83       96.78       96.74       96.69       96.65    
        96.62       96.59       96.56       96.55       96.54       96.54       96.55       96.56       96.58       96.62    
        96.65       96.70       96.74       96.79       96.85       96.90       96.96       97.01       97.07       97.12    
        97.17       97.22       97.27       97.31       97.35       97.38       97.41       97.44       97.46       97.48    
        97.49       97.50       97.50       97.50       97.50       97.49       97.48       97.46       97.44       97.42    
        97.40       97.37       97.34       97.31       97.28       97.25       97.22       97.19       97.16       97.14    
        97.13       97.12       97.11       97.12       97.13       97.16       97.19       97.23       97.28       97.34    
        97.40       97.47       97.55       97.63       97.72       97.81       97.90       98.00       98.09       98.19    
        98.29       98.39       98.49       98.60       98.71       98.83       98.97       99.13       99.32       99.59    
        100.0    
  13    97.19       97.18       97.17       97.16       97.14       97.11       97.09       97.05       97.02       96.98    
        96.93       96.88       96.83       96.78       96.73       96.67       96.62       96.57       96.52       96.47    
        96.43       96.39       96.37       96.35       96.34       96.34       96.34       96.36       96.39       96.42    
        96.47       96.51       96.57       96.62       96.68       96.75       96.81       96.87       96.93       96.99    
        97.04       97.10       97.14       97.19       97.23       97.27       97.30       97.33       97.35       97.37    
        97.38       97.39       97.40       97.40       97.39       97.38       97.37       97.35       97.33       97.30    
        97.28       97.24       97.21       97.17       97.14       97.10       97.07       97.03       97.00       96.98    
        96.96       96.94       96.94       96.94       96.95       96.98       97.01       97.05       97.11       97.17    
        97.24       97.32       97.41       97.50       97.59       97.69       97.79       97.89       97.99       98.10    
        98.20       98.31       98.42       98.54       98.65       98.78       98.93       99.09       99.30       99.58    
        100.0    
  14    97.08       97.08       97.07       97.05       97.03       97.00       96.97       96.94       96.90       96.85    
        96.80       96.75       96.69       96.64       96.58       96.52       96.46       96.40       96.34       96.29    
        96.24       96.20       96.17       96.15       96.13       96.13       96.14       96.16       96.19       96.23    
        96.28       96.33       96.39       96.46       96.52       96.59       96.66       96.73       96.79       96.86    
        96.92       96.98       97.03       97.08       97.12       97.16       97.20       97.23       97.25       97.27    
        97.28       97.29       97.30       97.30       97.29       97.28       97.26       97.24       97.22       97.19    
        97.16       97.12       97.08       97.04       97.00       96.96       96.92       96.88       96.84       96.81    
        96.79       96.77       96.76       96.76       96.77       96.80       96.83       96.88       96.94       97.01    
        97.08       97.17       97.26       97.36       97.46       97.57       97.68       97.79       97.90       98.01    
        98.12       98.24       98.35       98.47       98.60       98.73       98.88       99.06       99.27       99.56    
        100.0    
  15    96.98       96.98       96.97       96.95       96.93       96.90       96.86       96.83       96.78       96.73    
        96.68       96.62       96.56       96.50       96.43       96.36       96.30       96.23       96.17       96.11    
        96.05       96.01       95.97       95.95       95.93       95.93       95.94       95.96       95.99       96.04    
        96.09       96.15       96.22       96.29       96.37       96.44       96.52       96.59       96.66       96.73    
        96.80       96.86       96.92       96.97       97.02       97.06       97.10       97.13       97.16       97.18    
        97.19       97.20       97.20       97.20       97.20       97.18       97.17       97.14       97.12       97.08    
        97.05       97.01       96.96       96.92       96.87       96.82       96.77       96.73       96.69       96.65    
        96.62       96.59       96.58       96.58       96.59       96.61       96.65       96.70       96.76       96.84    
        96.92       97.02       97.12       97.22       97.33       97.45       97.56       97.68       97.80       97.92    
        98.04       98.16       98.29       98.41       98.54       98.69       98.84       99.02       99.24       99.54    
        100.0    
  16    96.89       96.88       96.87       96.85       96.83       96.80       96.76       96.72       96.67       96.62    
        96.56       96.50       96.43       96.36       96.29       96.21       96.14       96.07       95.99       95.93    
        95.87       95.82       95.77       95.74       95.73       95.72       95.73       95.76       95.80       95.85    
        95.91       95.98       96.05       96.13       96.21       96.29       96.38       96.46       96.54       96.61    
        96.68       96.75       96.81       96.87       96.92       96.97       97.00       97.04       97.07       97.09    
        97.10       97.11       97.12       97.11       97.11       97.09       97.07       97.05       97.02       96.98    
        96.94       96.89       96.85       96.79       96.74       96.69       96.63       96.58       96.53       96.49    
        96.45       96.42       96.40       96.40       96.41       96.43       96.47       96.52       96.59       96.67    
        96.76       96.86       96.97       97.09       97.21       97.33       97.46       97.58       97.71       97.84    
        97.96       98.09       98.22       98.36       98.49       98.64       98.80       98.99       99.22       99.53    
        100.0    
  17    96.80       96.80       96.78       96.76       96.74       96.71       96.67       96.62       96.57       96.51    
        96.45       96.38       96.31       96.23       96.15       96.07       95.99       95.91       95.83       95.75    
        95.68       95.62       95.58       95.54       95.52       95.52       95.53       95.56       95.60       95.66    
        95.72       95.80       95.88       95.97       96.06       96.15       96.24       96.33       96.42       96.50    
        96.58       96.65       96.71       96.77       96.83       96.88       96.92       96.95       96.98       97.00    
        97.02       97.03       97.03       97.03       97.02       97.00       96.98       96.96       96.92       96.88    
        96.84       96.79       96.73       96.68       96.62       96.56       96.49       96.43       96.38       96.32    
        96.28       96.24       96.22       96.21       96.22       96.24       96.28       96.34       96.41       96.50    
        96.60       96.71       96.83       96.96       97.09       97.22       97.35       97.49       97.62       97.76    
        97.89       98.03       98.16       98.30       98.44       98.60       98.77       98.96       99.20       99.52    
        100.0    
  18    96.72       96.71       96.70       96.68       96.65       96.62       96.58       96.53       96.47       96.41    
        96.34       96.27       96.19       96.11       96.02       95.93       95.84       95.75       95.66       95.58    
        95.50       95.44       95.38       95.34       95.32       95.32       95.33       95.36       95.41       95.47    
        95.55       95.63       95.72       95.82       95.92       96.02       96.12       96.21       96.30       96.39    
        96.47       96.55       96.62       96.68       96.74       96.79       96.84       96.87       96.90       96.93    
        96.94       96.95       96.96       96.95       96.94       96.92       96.90       96.87       96.83       96.79    
        96.74       96.69       96.63       96.57       96.50       96.43       96.36       96.29       96.23       96.17    
        96.11       96.07       96.04       96.03       96.04       96.06       96.10       96.16       96.24       96.34    
        96.44       96.56       96.69       96.83       96.97       97.11       97.25       97.40       97.54       97.68    
        97.82       97.96       98.11       98.25       98.40       98.56       98.73       98.93       99.17       99.50    
        100.0    
  19    96.65       96.64       96.62       96.60       96.57       96.54       96.49       96.44       96.38       96.32    
        96.25       96.17       96.08       95.99       95.90       95.80       95.70       95.60       95.51       95.41    
        95.33       95.26       95.20       95.15       95.13       95.12       95.13       95.17       95.22       95.29    
        95.37       95.47       95.57       95.67       95.78       95.89       95.99       96.10       96.20       96.29    
        96.38       96.46       96.53       96.60       96.66       96.71       96.76       96.80       96.83       96.85    
        96.87       96.88       96.88       96.88       96.87       96.85       96.82       96.79       96.75       96.71    
        96.65       96.59       96.53       96.46       96.39       96.31       96.23       96.16       96.08       96.02    
        95.96       95.91       95.87       95.85       95.86       95.88       95.92       95.99       96.07       96.18    
        96.29       96.42       96.56       96.70       96.85       97.01       97.16       97.31       97.46       97.61    
        97.76       97.90       98.05       98.20       98.36       98.52       98.70       98.90       99.15       99.49    
        100.0    
  20    96.58       96.57       96.55       96.53       96.50       96.46       96.42       96.36       96.30       96.23    
        96.16       96.07       95.98       95.89       95.79       95.68       95.57       95.47       95.36       95.26    
        95.17       95.08       95.02       94.97       94.94       94.93       94.95       94.98       95.04       95.12    
        95.21       95.31       95.42       95.54       95.65       95.77       95.88       95.99       96.10       96.20    
        96.29       96.38       96.45       96.52       96.59       96.64       96.69       96.73       96.76       96.79    
        96.81       96.82       96.82       96.81       96.80       96.78       96.75       96.72       96.68       96.63    
        96.57       96.51       96.44       96.36       96.28       96.20       96.12       96.03       95.95       95.87    
        95.80       95.75       95.71       95.68       95.68       95.71       95.75       95.82       95.91       96.02    
        96.15       96.29       96.44       96.59       96.75       96.91       97.07       97.23       97.39       97.54    
        97.70       97.85       98.00       98.16       98.32       98.49       98.67       98.88       99.14       99.48    
        100.0    
  21    96.52       96.51       96.49       96.47       96.44       96.40       96.35       96.29       96.23       96.16    
        96.07       95.99       95.89       95.79       95.68       95.57       95.46       95.34       95.23       95.12    
        95.01       94.92       94.85       94.79       94.76       94.75       94.77       94.81       94.88       94.96    
        95.06       95.17       95.29       95.41       95.54       95.66       95.78       95.90       96.01       96.11    
        96.21       96.30       96.38       96.46       96.52       96.58       96.63       96.67       96.70       96.73    
        96.75       96.76       96.76       96.76       96.74       96.72       96.69       96.66       96.61       96.56    
        96.50       96.43       96.36       96.28       96.19       96.10       96.01       95.92       95.83       95.74    
        95.66       95.60       95.55       95.53       95.52       95.54       95.59       95.67       95.76       95.88    
        96.02       96.16       96.32       96.49       96.65       96.82       96.99       97.16       97.32       97.49    
        97.65       97.80       97.96       98.12       98.28       98.46       98.64       98.86       99.12       99.47    
        100.0    
  22    96.46       96.45       96.43       96.41       96.38       96.34       96.29       96.23       96.16       96.09    
        96.00       95.91       95.81       95.70       95.59       95.47       95.35       95.23       95.11       94.99    
        94.88       94.78       94.70       94.64       94.60       94.59       94.61       94.66       94.73       94.82    
        94.92       95.04       95.17       95.30       95.43       95.56       95.69       95.82       95.93       96.04    
        96.14       96.23       96.32       96.40       96.46       96.52       96.57       96.62       96.65       96.68    
        96.70       96.71       96.71       96.70       96.69       96.67       96.64       96.60       96.55       96.50    
        96.43       96.36       96.28       96.20       96.11       96.01       95.91       95.82       95.72       95.62    
        95.54       95.47       95.42       95.39       95.38       95.40       95.45       95.53       95.63       95.75    
        95.90       96.05       96.22       96.39       96.57       96.75       96.92       97.10       97.27       97.43    
        97.60       97.76       97.92       98.09       98.26       98.43       98.62       98.84       99.11       99.46    
        100.0    
  23    96.41       96.40       96.39       96.36       96.33       96.28       96.23       96.17       96.10       96.03    
        95.94       95.85       95.74       95.63       95.51       95.39       95.26       95.13       95.00       94.88    
        94.76       94.66       94.57       94.51       94.47       94.46       94.48       94.53       94.60       94.70    
        94.81       94.93       95.07       95.21       95.35       95.48       95.62       95.74       95.86       95.98    
        96.08       96.18       96.27       96.34       96.41       96.47       96.53       96.57       96.61       96.63    
        96.65       96.66       96.67       96.66       96.64       96.62       96.59       96.55       96.50       96.44    
        96.38       96.31       96.22       96.14       96.04       95.94       95.84       95.73       95.63       95.53    
        95.44       95.36       95.30       95.27       95.26       95.28       95.33       95.41       95.52       95.65    
        95.80       95.96       96.14       96.32       96.50       96.68       96.87       97.04       97.22       97.39    
        97.56       97.73       97.89       98.06       98.23       98.41       98.60       98.82       99.09       99.45    
        100.0    
  24    96.37       96.36       96.34       96.32       96.28       96.24       96.19       96.13       96.06       95.98    
        95.89       95.79       95.69       95.57       95.45       95.32       95.19       95.06       94.92       94.79    
        94.67       94.56       94.47       94.40       94.36       94.35       94.37       94.42       94.50       94.60    
        94.72       94.85       94.99       95.13       95.28       95.42       95.56       95.69       95.81       95.93    
        96.03       96.13       96.22       96.30       96.37       96.43       96.49       96.53       96.57       96.60    
        96.62       96.63       96.63       96.62       96.61       96.58       96.55       96.51       96.46       96.40    
        96.33       96.26       96.18       96.08       95.99       95.88       95.77       95.66       95.55       95.45    
        95.35       95.27       95.21       95.17       95.16       95.18       95.23       95.32       95.43       95.56    
        95.72       95.89       96.07       96.26       96.45       96.63       96.82       97.00       97.18       97.36    
        97.53       97.70       97.87       98.04       98.21       98.39       98.59       98.81       99.08       99.45    
        100.0    
  25    96.34       96.33       96.31       96.28       96.25       96.20       96.15       96.09       96.02       95.94    
        95.85       95.75       95.64       95.53       95.40       95.27       95.14       95.00       94.86       94.73    
        94.60       94.49       94.40       94.33       94.29       94.27       94.30       94.35       94.43       94.53    
        94.65       94.79       94.93       95.08       95.22       95.37       95.51       95.64       95.77       95.89    
        95.99       96.09       96.19       96.27       96.34       96.40       96.46       96.50       96.54       96.57    
        96.59       96.60       96.60       96.59       96.58       96.55       96.52       96.48       96.43       96.37    
        96.30       96.22       96.14       96.05       95.95       95.84       95.73       95.62       95.50       95.40    
        95.30       95.21       95.15       95.11       95.10       95.12       95.17       95.26       95.37       95.51    
        95.67       95.84       96.03       96.22       96.41       96.60       96.79       96.98       97.16       97.34    
        97.51       97.68       97.85       98.02       98.20       98.38       98.58       98.80       99.08       99.44    
        100.0    
  26    96.31       96.30       96.28       96.26       96.22       96.18       96.12       96.06       95.99       95.91    
        95.82       95.72       95.61       95.50       95.37       95.24       95.11       94.97       94.83       94.69    
        94.57       94.45       94.36       94.29       94.25       94.23       94.26       94.31       94.39       94.49    
        94.62       94.75       94.90       95.04       95.19       95.34       95.48       95.61       95.74       95.86    
        95.97       96.07       96.16       96.24       96.31       96.38       96.43       96.48       96.51       96.54    
        96.56       96.57       96.58       96.57       96.55       96.53       96.50       96.46       96.41       96.35    
        96.28       96.20       96.12       96.02       95.92       95.81       95.70       95.59       95.48       95.37    
        95.27       95.19       95.12       95.08       95.07       95.09       95.14       95.23       95.34       95.48    
        95.64       95.82       96.01       96.20       96.39       96.58       96.77       96.96       97.15       97.33    
        97.50       97.67       97.84       98.02       98.19       98.37       98.57       98.80       99.07       99.44    
        100.0    
  27    96.29       96.28       96.26       96.24       96.20       96.16       96.11       96.04       95.97       95.89    
        95.80       95.70       95.60       95.48       95.36       95.23       95.09       94.95       94.82       94.68    
        94.56       94.45       94.35       94.28       94.24       94.23       94.25       94.30       94.38       94.49    
        94.61       94.74       94.89       95.03       95.18       95.33       95.47       95.60       95.73       95.84    
        95.95       96.05       96.14       96.23       96.30       96.36       96.42       96.46       96.50       96.53    
        96.55       96.56       96.56       96.55       96.54       96.52       96.48       96.44       96.39       96.34    
        96.27       96.19       96.11       96.01       95.91       95.81       95.70       95.59       95.47       95.37    
        95.27       95.19       95.12       95.08       95.07       95.09       95.15       95.23       95.35       95.49    
        95.65       95.82       96.01       96.20       96.39       96.58       96.77       96.96       97.14       97.32    
        97.50       97.67       97.84       98.01       98.19       98.37       98.57       98.80       99.07       99.44    
        100.0    
  28    96.28       96.27       96.25       96.22       96.19       96.15       96.09       96.03       95.96       95.88    
        95.80       95.70       95.59       95.48       95.36       95.23       95.10       94.96       94.83       94.70    
        94.58       94.47       94.38       94.31       94.27       94.26       94.28       94.33       94.41       94.51    
        94.63       94.76       94.90       95.05       95.19       95.33       95.47       95.60       95.73       95.84    
        95.95       96.05       96.14       96.22       96.29       96.35       96.41       96.45       96.49       96.52    
        96.54       96.55       96.55       96.55       96.53       96.51       96.48       96.44       96.39       96.33    
        96.27       96.19       96.11       96.02       95.92       95.82       95.71       95.60       95.50       95.39    
        95.30       95.22       95.16       95.12       95.11       95.13       95.19       95.27       95.38       95.52    
        95.68       95.85       96.03       96.22       96.41       96.60       96.79       96.97       97.15       97.33    
        97.51       97.68       97.85       98.02       98.19       98.37       98.57       98.80       99.07       99.44    
        100.0    
  29    96.27       96.26       96.25       96.22       96.19       96.14       96.09       96.03       95.96       95.89    
        95.80       95.71       95.60       95.49       95.38       95.25       95.12       95.00       94.87       94.74    
        94.63       94.52       94.44       94.37       94.33       94.32       94.34       94.39       94.47       94.56    
        94.68       94.80       94.94       95.08       95.22       95.35       95.49       95.62       95.74       95.85    
        95.96       96.05       96.14       96.22       96.29       96.35       96.41       96.45       96.49       96.52    
        96.54       96.55       96.55       96.55       96.53       96.51       96.48       96.44       96.40       96.34    
        96.28       96.21       96.13       96.04       95.94       95.85       95.74       95.64       95.54       95.44    
        95.35       95.28       95.22       95.19       95.18       95.20       95.26       95.34       95.45       95.58    
        95.73       95.90       96.08       96.26       96.44       96.63       96.81       97.00       97.17       97.35    
        97.52       97.69       97.86       98.03       98.20       98.38       98.58       98.80       99.08       99.44    
        100.0    
  30    96.27       96.26       96.25       96.22       96.19       96.15       96.10       96.04       95.97       95.90    
        95.82       95.73       95.63       95.52       95.41       95.29       95.17       95.04       94.92       94.81    
        94.70       94.60       94.52       94.46       94.42       94.42       94.43       94.48       94.55       94.64    
        94.75       94.87       95.00       95.13       95.26       95.39       95.52       95.65       95.76       95.87    
        95.97       96.07       96.15       96.23       96.30       96.36       96.42       96.46       96.50       96.52    
        96.54       96.56       96.56       96.55       96.54       96.52       96.49       96.46       96.41       96.36    
        96.30       96.23       96.15       96.07       95.98       95.89       95.79       95.70       95.60       95.51    
        95.43       95.36       95.31       95.28       95.28       95.30       95.35       95.43       95.54       95.67    
        95.81       95.97       96.14       96.32       96.50       96.68       96.85       97.03       97.21       97.38    
        97.54       97.71       97.88       98.04       98.21       98.39       98.59       98.81       99.08       99.45    
        100.0    
  31    96.28       96.27       96.26       96.23       96.20       96.16       96.11       96.06       95.99       95.92    
        95.84       95.75       95.66       95.56       95.45       95.34       95.23       95.11       95.00       94.89    
        94.79       94.70       94.62       94.57       94.54       94.53       94.55       94.59       94.65       94.74    
        94.84       94.95       95.07       95.19       95.32       95.45       95.57       95.69       95.80       95.90    
        96.00       96.09       96.18       96.25       96.32       96.38       96.43       96.47       96.51       96.54    
        96.56       96.57       96.57       96.57       96.56       96.54       96.51       96.48       96.44       96.39    
        96.33       96.26       96.19       96.11       96.03       95.94       95.86       95.77       95.68       95.60    
        95.52       95.46       95.42       95.40       95.39       95.42       95.47       95.55       95.65       95.77    
        95.91       96.06       96.22       96.39       96.56       96.73       96.91       97.08       97.25       97.41    
        97.58       97.74       97.90       98.07       98.23       98.41       98.60       98.82       99.09       99.45    
        100.0    
  32    96.30       96.29       96.27       96.25       96.22       96.18       96.14       96.08       96.02       95.95    
        95.88       95.79       95.70       95.61       95.51       95.40       95.30       95.19       95.08       94.98    
        94.89       94.81       94.74       94.69       94.67       94.66       94.68       94.72       94.77       94.85    
        94.94       95.05       95.16       95.27       95.39       95.51       95.63       95.74       95.84       95.94    
        96.04       96.13       96.21       96.28       96.34       96.40       96.45       96.49       96.53       96.55    
        96.57       96.59       96.59       96.59       96.58       96.56       96.54       96.51       96.47       96.42    
        96.37       96.31       96.24       96.17       96.09       96.01       95.93       95.85       95.77       95.70    
        95.63       95.58       95.54       95.53       95.53       95.56       95.61       95.68       95.77       95.89    
        96.02       96.16       96.31       96.47       96.64       96.80       96.97       97.13       97.30       97.46    
        97.62       97.77       97.93       98.09       98.26       98.43       98.62       98.84       99.10       99.46    
        100.0    
  33    96.32       96.31       96.29       96.27       96.24       96.21       96.16       96.11       96.05       95.99    
        95.92       95.84       95.76       95.67       95.57       95.48       95.38       95.28       95.18       95.09    
        95.01       94.94       94.88       94.83       94.81       94.80       94.82       94.85       94.91       94.98    
        95.06       95.16       95.26       95.37       95.48       95.58       95.69       95.80       95.90       95.99    
        96.08       96.17       96.24       96.31       96.37       96.43       96.48       96.52       96.55       96.58    
        96.60       96.61       96.62       96.62       96.61       96.59       96.57       96.54       96.50       96.46    
        96.41       96.36       96.30       96.23       96.16       96.09       96.02       95.95       95.88       95.81    
        95.76       95.71       95.68       95.67       95.68       95.70       95.75       95.82       95.91       96.02    
        96.14       96.28       96.42       96.57       96.72       96.88       97.04       97.20       97.35       97.51    
        97.66       97.81       97.97       98.12       98.28       98.46       98.64       98.86       99.12       99.47    
        100.0    
  34    96.34       96.34       96.32       96.30       96.27       96.24       96.20       96.15       96.10       96.03    
        95.97       95.89       95.82       95.73       95.65       95.56       95.47       95.38       95.29       95.21    
        95.13       95.07       95.02       94.98       94.96       94.95       94.97       95.00       95.05       95.11    
        95.19       95.27       95.37       95.47       95.57       95.67       95.77       95.87       95.96       96.05    
        96.13       96.21       96.29       96.35       96.41       96.46       96.51       96.55       96.58       96.61    
        96.63       96.64       96.65       96.65       96.64       96.63       96.61       96.58       96.55       96.51    
        96.47       96.42       96.36       96.30       96.24       96.18       96.11       96.05       95.99       95.93    
        95.89       95.85       95.83       95.82       95.83       95.86       95.90       95.97       96.06       96.16    
        96.27       96.40       96.53       96.67       96.82       96.96       97.11       97.26       97.41       97.56    
        97.71       97.86       98.01       98.16       98.32       98.48       98.67       98.87       99.13       99.48    
        100.0    
  35    96.37       96.37       96.35       96.34       96.31       96.28       96.24       96.19       96.14       96.09    
        96.02       95.96       95.88       95.81       95.73       95.65       95.57       95.48       95.41       95.33    
        95.27       95.21       95.16       95.13       95.11       95.11       95.12       95.15       95.19       95.25    
        95.32       95.40       95.48       95.57       95.66       95.76       95.85       95.94       96.03       96.11    
        96.19       96.27       96.33       96.40       96.45       96.50       96.55       96.59       96.62       96.65    
        96.67       96.68       96.69       96.69       96.68       96.67       96.65       96.63       96.60       96.56    
        96.52       96.48       96.43       96.38       96.32       96.27       96.21       96.16       96.10       96.06    
        96.02       95.99       95.97       95.97       95.98       96.01       96.06       96.12       96.20       96.30    
        96.40       96.52       96.65       96.78       96.91       97.05       97.20       97.34       97.48       97.62    
        97.76       97.91       98.05       98.20       98.35       98.51       98.69       98.90       99.15       99.49    
        100.0    
  36    96.41       96.40       96.39       96.37       96.35       96.32       96.28       96.24       96.19       96.14    
        96.08       96.02       95.96       95.89       95.81       95.74       95.67       95.59       95.52       95.46    
        95.40       95.35       95.31       95.28       95.26       95.26       95.28       95.30       95.34       95.39    
        95.45       95.52       95.60       95.68       95.77       95.85       95.94       96.02       96.10       96.18    
        96.25       96.32       96.39       96.45       96.50       96.55       96.59       96.63       96.66       96.69    
        96.71       96.72       96.73       96.73       96.73       96.72       96.70       96.68       96.65       96.62    
        96.59       96.55       96.51       96.46       96.41       96.36       96.32       96.27       96.23       96.19    
        96.16       96.13       96.12       96.12       96.14       96.17       96.22       96.28       96.35       96.44    
        96.54       96.65       96.77       96.89       97.02       97.15       97.28       97.42       97.55       97.69    
        97.82       97.96       98.10       98.24       98.39       98.55       98.72       98.92       99.17       99.50    
        100.0    
  37    96.45       96.45       96.43       96.42       96.40       96.37       96.33       96.30       96.25       96.20    
        96.15       96.09       96.03       95.97       95.90       95.84       95.77       95.71       95.64       95.59    
        95.53       95.49       95.46       95.43       95.42       95.42       95.43       95.45       95.49       95.53    
        95.59       95.65       95.72       95.80       95.87       95.95       96.03       96.11       96.18       96.25    
        96.32       96.39       96.45       96.50       96.55       96.60       96.64       96.68       96.71       96.73    
        96.75       96.76       96.77       96.78       96.77       96.77       96.75       96.74       96.71       96.69    
        96.66       96.62       96.59       96.55       96.50       96.46       96.42       96.38       96.35       96.32    
        96.29       96.28       96.27       96.28       96.30       96.33       96.37       96.43       96.50       96.58    
        96.67       96.78       96.89       97.00       97.12       97.24       97.37       97.50       97.62       97.75    
        97.88       98.01       98.15       98.28       98.43       98.58       98.75       98.94       99.18       99.51    
        100.0    
  38    96.50       96.49       96.48       96.47       96.44       96.42       96.39       96.35       96.31       96.27    
        96.22       96.17       96.11       96.06       96.00       95.94       95.88       95.82       95.76       95.71    
        95.67       95.63       95.60       95.58       95.57       95.57       95.58       95.60       95.63       95.68    
        95.73       95.78       95.84       95.91       95.98       96.05       96.12       96.19       96.26       96.33    
        96.39       96.45       96.51       96.56       96.61       96.65       96.69       96.73       96.76       96.78    
        96.80       96.81       96.82       96.83       96.83       96.82       96.81       96.80       96.78       96.75    
        96.73       96.70       96.67       96.63       96.60       96.56       96.53       96.50       96.47       96.45    
        96.43       96.42       96.42       96.43       96.45       96.48       96.52       96.58       96.64       96.72    
        96.81       96.90       97.00       97.11       97.22       97.34       97.46       97.58       97.70       97.82    
        97.95       98.07       98.20       98.33       98.47       98.62       98.78       98.97       99.20       99.52    
        100.0    
  39    96.55       96.54       96.53       96.52       96.50       96.47       96.44       96.41       96.38       96.34    
        96.29       96.24       96.19       96.14       96.09       96.04       95.98       95.93       95.89       95.84    
        95.80       95.77       95.74       95.72       95.72       95.72       95.73       95.75       95.78       95.81    
        95.86       95.91       95.96       96.02       96.09       96.15       96.22       96.28       96.34       96.41    
        96.47       96.52       96.57       96.62       96.67       96.71       96.75       96.78       96.81       96.83    
        96.85       96.86       96.87       96.88       96.88       96.88       96.87       96.86       96.84       96.82    
        96.80       96.78       96.75       96.72       96.69       96.67       96.64       96.61       96.59       96.57    
        96.56       96.56       96.56       96.57       96.59       96.63       96.67       96.72       96.79       96.86    
        96.94       97.03       97.12       97.22       97.33       97.44       97.55       97.66       97.78       97.89    
        98.01       98.13       98.25       98.38       98.51       98.66       98.81       99.00       99.23       99.53    
        100.0    
  40    96.60       96.59       96.58       96.57       96.55       96.53       96.51       96.48       96.44       96.41    
        96.37       96.32       96.28       96.23       96.19       96.14       96.09       96.05       96.00       95.97    
        95.93       95.90       95.88       95.87       95.86       95.86       95.87       95.89       95.91       95.95    
        95.99       96.03       96.08       96.14       96.20       96.25       96.31       96.37       96.43       96.49    
        96.54       96.59       96.64       96.69       96.73       96.77       96.81       96.84       96.86       96.89    
        96.91       96.92       96.93       96.94       96.94       96.94       96.93       96.92       96.91       96.90    
        96.88       96.86       96.84       96.81       96.79       96.77       96.75       96.73       96.71       96.70    
        96.69       96.69       96.70       96.71       96.74       96.77       96.81       96.86       96.92       96.99    
        97.07       97.15       97.24       97.33       97.43       97.53       97.64       97.74       97.85       97.96    
        98.07       98.19       98.31       98.43       98.56       98.69       98.85       99.03       99.25       99.55    
        100.0    
  41    96.65       96.65       96.64       96.63       96.61       96.59       96.57       96.54       96.51       96.48    
        96.44       96.40       96.36       96.32       96.28       96.24       96.20       96.16       96.12       96.09    
        96.06       96.03       96.01       96.00       96.00       96.00       96.01       96.03       96.05       96.08    
        96.12       96.16       96.20       96.25       96.30       96.35       96.41       96.46       96.52       96.57    
        96.62       96.67       96.71       96.76       96.80       96.83       96.87       96.90       96.92       96.94    
        96.96       96.98       96.99       97.00       97.00       97.00       97.00       96.99       96.98       96.97    
        96.95       96.94       96.92       96.90       96.89       96.87       96.85       96.84       96.83       96.82    
        96.82       96.82       96.83       96.85       96.87       96.91       96.95       97.00       97.05       97.12    
        97.19       97.27       97.35       97.44       97.53       97.63       97.72       97.83       97.93       98.03    
        98.14       98.25       98.36       98.48       98.60       98.73       98.88       99.06       99.27       99.56    
        100.0    
  42    96.71       96.70       96.70       96.69       96.67       96.65       96.63       96.61       96.58       96.55    
        96.52       96.48       96.45       96.41       96.37       96.34       96.30       96.27       96.23       96.21    
        96.18       96.16       96.14       96.13       96.13       96.13       96.14       96.16       96.18       96.21    
        96.24       96.28       96.32       96.36       96.41       96.45       96.50       96.55       96.60       96.65    
        96.70       96.74       96.78       96.82       96.86       96.90       96.93       96.96       96.98       97.00    
        97.02       97.04       97.05       97.06       97.06       97.06       97.06       97.06       97.05       97.04    
        97.03       97.02       97.01       96.99       96.98       96.97       96.96       96.95       96.94       96.94    
        96.94       96.95       96.96       96.98       97.00       97.04       97.08       97.12       97.18       97.24    
        97.31       97.38       97.46       97.54       97.63       97.72       97.81       97.91       98.00       98.10    
        98.20       98.31       98.42       98.53       98.65       98.77       98.92       99.08       99.29       99.57    
        100.0    
  43    96.77       96.76       96.76       96.75       96.73       96.72       96.70       96.68       96.65       96.62    
        96.60       96.56       96.53       96.50       96.47       96.44       96.40       96.37       96.35       96.32    
        96.30       96.28       96.27       96.26       96.26       96.26       96.27       96.28       96.30       96.33    
        96.36       96.39       96.43       96.47       96.51       96.55       96.60       96.64       96.69       96.73    
        96.78       96.82       96.86       96.89       96.93       96.96       96.99       97.02       97.04       97.06    
        97.08       97.10       97.11       97.12       97.12       97.13       97.13       97.13       97.12       97.12    
        97.11       97.10       97.09       97.08       97.07       97.07       97.06       97.05       97.05       97.05    
        97.06       97.07       97.08       97.10       97.13       97.16       97.20       97.25       97.30       97.36    
        97.42       97.49       97.56       97.64       97.72       97.81       97.90       97.99       98.08       98.17    
        98.27       98.37       98.47       98.58       98.69       98.81       98.95       99.11       99.31       99.59    
        100.0    
  44    96.83       96.82       96.82       96.81       96.80       96.78       96.76       96.74       96.72       96.70    
        96.67       96.65       96.62       96.59       96.56       96.53       96.50       96.48       96.45       96.43    
        96.41       96.40       96.39       96.38       96.38       96.38       96.39       96.41       96.42       96.45    
        96.47       96.50       96.54       96.57       96.61       96.65       96.69       96.73       96.77       96.81    
        96.85       96.89       96.93       96.96       97.00       97.03       97.06       97.08       97.11       97.13    
        97.14       97.16       97.17       97.18       97.19       97.19       97.20       97.20       97.20       97.19    
        97.19       97.18       97.18       97.17       97.17       97.16       97.16       97.16       97.16       97.16    
        97.17       97.18       97.20       97.22       97.25       97.28       97.32       97.36       97.41       97.47    
        97.53       97.60       97.66       97.74       97.82       97.90       97.98       98.06       98.15       98.24    
        98.33       98.43       98.52       98.63       98.74       98.85       98.99       99.14       99.34       99.60    
        100.0    
  45    96.89       96.88       96.88       96.87       96.86       96.85       96.83       96.81       96.79       96.77    
        96.75       96.73       96.70       96.68       96.65       96.63       96.60       96.58       96.56       96.54    
        96.52       96.51       96.50       96.50       96.50       96.50       96.51       96.52       96.54       96.56    
        96.58       96.61       96.64       96.67       96.71       96.75       96.78       96.82       96.86       96.90    
        96.93       96.97       97.00       97.04       97.07       97.10       97.12       97.15       97.17       97.19    
        97.21       97.22       97.24       97.25       97.25       97.26       97.26       97.27       97.27       97.27    
        97.27       97.26       97.26       97.26       97.26       97.25       97.25       97.26       97.26       97.27    
        97.28       97.29       97.31       97.33       97.36       97.39       97.43       97.48       97.52       97.58    
        97.63       97.70       97.76       97.83       97.90       97.98       98.06       98.14       98.22       98.31    
        98.39       98.48       98.58       98.68       98.78       98.89       99.02       99.17       99.36       99.61    
        100.0    
  46    96.95       96.95       96.94       96.94       96.93       96.91       96.90       96.88       96.87       96.85    
        96.83       96.81       96.78       96.76       96.74       96.72       96.70       96.68       96.66       96.65    
        96.63       96.62       96.61       96.61       96.61       96.62       96.62       96.63       96.65       96.67    
        96.69       96.72       96.74       96.77       96.81       96.84       96.87       96.91       96.94       96.98    
        97.01       97.04       97.08       97.11       97.14       97.16       97.19       97.21       97.23       97.25    
        97.27       97.29       97.30       97.31       97.32       97.33       97.33       97.34       97.34       97.34    
        97.34       97.34       97.34       97.34       97.34       97.34       97.35       97.35       97.36       97.37    
        97.38       97.40       97.42       97.44       97.47       97.50       97.54       97.58       97.63       97.68    
        97.73       97.79       97.86       97.92       97.99       98.06       98.14       98.21       98.29       98.37    
        98.45       98.54       98.63       98.72       98.82       98.93       99.06       99.20       99.38       99.63    
        100.0    
  47    97.01       97.01       97.01       97.00       96.99       96.98       96.97       96.95       96.94       96.92    
        96.90       96.89       96.87       96.85       96.83       96.81       96.79       96.77       96.76       96.75    
        96.73       96.73       96.72       96.72       96.72       96.72       96.73       96.74       96.76       96.77    
        96.79       96.82       96.84       96.87       96.90       96.93       96.96       96.99       97.02       97.06    
        97.09       97.12       97.15       97.18       97.20       97.23       97.25       97.28       97.30       97.32    
        97.33       97.35       97.36       97.38       97.39       97.39       97.40       97.41       97.41       97.42    
        97.42       97.42       97.42       97.43       97.43       97.43       97.44       97.45       97.45       97.47    
        97.48       97.50       97.52       97.54       97.57       97.61       97.64       97.68       97.73       97.78    
        97.83       97.88       97.94       98.01       98.07       98.14       98.21       98.28       98.36       98.43    
        98.51       98.60       98.68       98.77       98.87       98.97       99.09       99.23       99.40       99.64    
        100.0    
  48    97.08       97.07       97.07       97.06       97.06       97.05       97.04       97.02       97.01       97.00    
        96.98       96.96       96.95       96.93       96.91       96.90       96.88       96.87       96.85       96.84    
        96.83       96.83       96.82       96.82       96.82       96.83       96.83       96.85       96.86       96.87    
        96.89       96.91       96.94       96.96       96.99       97.02       97.05       97.07       97.10       97.13    
        97.16       97.19       97.22       97.25       97.27       97.30       97.32       97.34       97.36       97.38    
        97.40       97.41       97.43       97.44       97.45       97.46       97.47       97.48       97.48       97.49    
        97.49       97.50       97.50       97.51       97.51       97.52       97.53       97.54       97.55       97.56    
        97.58       97.59       97.62       97.64       97.67       97.70       97.74       97.78       97.82       97.87    
        97.92       97.97       98.03       98.09       98.15       98.22       98.28       98.35       98.42       98.50    
        98.57       98.65       98.73       98.82       98.91       99.01       99.12       99.26       99.43       99.65    
        100.0    
  49    97.14       97.14       97.13       97.13       97.12       97.11       97.10       97.09       97.08       97.07    
        97.05       97.04       97.03       97.01       97.00       96.98       96.97       96.96       96.95       96.94    
        96.93       96.92       96.92       96.92       96.92       96.93       96.93       96.94       96.96       96.97    
        96.99       97.01       97.03       97.05       97.08       97.10       97.13       97.16       97.18       97.21    
        97.24       97.26       97.29       97.32       97.34       97.36       97.39       97.41       97.43       97.45    
        97.46       97.48       97.49       97.51       97.52       97.53       97.54       97.54       97.55       97.56    
        97.57       97.57       97.58       97.59       97.59       97.60       97.61       97.62       97.63       97.65    
        97.67       97.69       97.71       97.74       97.76       97.80       97.83       97.87       97.91       97.96    
        98.01       98.06       98.11       98.17       98.23       98.29       98.35       98.42       98.48       98.55    
        98.63       98.70       98.78       98.86       98.95       99.05       99.16       99.29       99.45       99.67    
        100.0    
  50    97.20       97.20       97.20       97.19       97.19       97.18       97.17       97.16       97.15       97.14    
        97.13       97.12       97.10       97.09       97.08       97.07       97.05       97.04       97.04       97.03    
        97.02       97.02       97.02       97.02       97.02       97.02       97.03       97.04       97.05       97.06    
        97.08       97.10       97.12       97.14       97.16       97.19       97.21       97.24       97.26       97.29    
        97.31       97.34       97.36       97.39       97.41       97.43       97.45       97.47       97.49       97.51    
        97.53       97.54       97.56       97.57       97.58       97.59       97.60       97.61       97.62       97.63    
        97.64       97.65       97.65       97.66       97.67       97.68       97.69       97.70       97.72       97.74    
        97.75       97.77       97.80       97.82       97.85       97.88       97.92       97.96       98.00       98.04    
        98.09       98.14       98.19       98.24       98.30       98.36       98.42       98.48       98.55       98.61    
        98.68       98.75       98.83       98.91       98.99       99.08       99.19       99.31       99.47       99.68    
        100.0    
  51    97.27       97.26       97.26       97.26       97.25       97.25       97.24       97.23       97.22       97.21    
        97.20       97.19       97.18       97.17       97.16       97.15       97.14       97.13       97.12       97.11    
        97.11       97.11       97.11       97.11       97.11       97.11       97.12       97.13       97.14       97.15    
        97.17       97.19       97.20       97.22       97.25       97.27       97.29       97.31       97.34       97.36    
        97.38       97.41       97.43       97.45       97.48       97.50       97.52       97.54       97.55       97.57    
        97.59       97.60       97.62       97.63       97.64       97.66       97.67       97.68       97.69       97.70    
        97.71       97.72       97.73       97.74       97.75       97.76       97.77       97.78       97.80       97.82    
        97.84       97.86       97.88       97.91       97.94       97.97       98.00       98.04       98.08       98.12    
        98.17       98.21       98.26       98.31       98.37       98.42       98.48       98.54       98.60       98.67    
        98.73       98.80       98.87       98.95       99.03       99.12       99.22       99.34       99.49       99.69    
        100.0    
  52    97.33       97.33       97.32       97.32       97.32       97.31       97.30       97.30       97.29       97.28    
        97.27       97.26       97.25       97.24       97.23       97.23       97.22       97.21       97.20       97.20    
        97.19       97.19       97.19       97.19       97.20       97.20       97.21       97.22       97.23       97.24    
        97.25       97.27       97.29       97.31       97.32       97.35       97.37       97.39       97.41       97.43    
        97.45       97.48       97.50       97.52       97.54       97.56       97.58       97.60       97.62       97.63    
        97.65       97.67       97.68       97.69       97.71       97.72       97.73       97.74       97.75       97.76    
        97.78       97.79       97.80       97.81       97.82       97.83       97.85       97.86       97.88       97.90    
        97.92       97.94       97.96       97.99       98.02       98.05       98.08       98.12       98.16       98.20    
        98.24       98.29       98.33       98.38       98.43       98.49       98.54       98.60       98.66       98.72    
        98.78       98.85       98.92       98.99       99.07       99.15       99.25       99.37       99.51       99.70    
        100.0    
  53    97.39       97.39       97.39       97.38       97.38       97.37       97.37       97.36       97.36       97.35    
        97.34       97.33       97.32       97.32       97.31       97.30       97.29       97.29       97.28       97.28    
        97.28       97.28       97.28       97.28       97.28       97.29       97.29       97.30       97.31       97.32    
        97.34       97.35       97.37       97.38       97.40       97.42       97.44       97.46       97.48       97.50    
        97.52       97.54       97.56       97.59       97.61       97.62       97.64       97.66       97.68       97.70    
        97.71       97.73       97.74       97.76       97.77       97.78       97.79       97.81       97.82       97.83    
        97.84       97.85       97.87       97.88       97.89       97.90       97.92       97.94       97.95       97.97    
        97.99       98.02       98.04       98.07       98.09       98.13       98.16       98.19       98.23       98.27    
        98.31       98.36       98.40       98.45       98.50       98.55       98.60       98.66       98.71       98.77    
        98.83       98.89       98.96       99.03       99.10       99.19       99.28       99.39       99.53       99.71    
        100.0    
  54    97.45       97.45       97.45       97.44       97.44       97.44       97.43       97.43       97.42       97.41    
        97.41       97.40       97.39       97.39       97.38       97.37       97.37       97.36       97.36       97.36    
[...]
        98.70       98.71       98.72       98.73       98.73       98.74       98.75       98.76       98.77       98.78    
        98.79       98.80       98.81       98.83       98.84       98.85       98.86       98.87       98.89       98.90    
        98.91       98.93       98.94       98.96       98.97       98.99       99.00       99.02       99.04       99.05    
        99.07       99.09       99.11       99.13       99.15       99.17       99.19       99.21       99.23       99.25    
        99.27       99.29       99.31       99.32       99.34       99.36       99.37       99.38       99.39       99.40    
        99.40    
  89    98.52       98.52       98.52       98.52       98.52       98.52       98.52       98.52       98.52       98.53    
        98.53       98.53       98.53       98.53       98.53       98.53       98.54       98.54       98.54       98.54    
        98.54       98.55       98.55       98.55       98.56       98.56       98.56       98.57       98.57       98.57    
        98.58       98.58       98.59       98.59       98.60       98.60       98.61       98.61       98.62       98.62    
        98.63       98.64       98.64       98.65       98.65       98.66       98.67       98.68       98.68       98.69    
        98.70       98.71       98.72       98.72       98.73       98.74       98.75       98.76       98.77       98.78    
        98.79       98.80       98.81       98.82       98.83       98.84       98.86       98.87       98.88       98.89    
        98.91       98.92       98.93       98.95       98.96       98.98       98.99       99.01       99.03       99.04    
        99.06       99.08       99.10       99.12       99.13       99.15       99.17       99.19       99.21       99.23    
        99.25       99.27       99.29       99.31       99.33       99.34       99.36       99.37       99.38       99.39    
        99.39    
  90    98.53       98.53       98.53       98.53       98.53       98.53       98.53       98.53       98.53       98.53    
        98.53       98.53       98.53       98.53       98.54       98.54       98.54       98.54       98.54       98.54    
        98.55       98.55       98.55       98.55       98.56       98.56       98.56       98.57       98.57       98.58    
        98.58       98.58       98.59       98.59       98.60       98.60       98.61       98.61       98.62       98.62    
        98.63       98.63       98.64       98.65       98.65       98.66       98.67       98.67       98.68       98.69    
        98.70       98.70       98.71       98.72       98.73       98.74       98.75       98.76       98.76       98.77    
        98.78       98.79       98.80       98.82       98.83       98.84       98.85       98.86       98.87       98.89    
        98.90       98.91       98.92       98.94       98.95       98.97       98.98       99.00       99.01       99.03    
        99.05       99.07       99.08       99.10       99.12       99.14       99.16       99.18       99.20       99.22    
        99.24       99.26       99.28       99.30       99.31       99.33       99.34       99.36       99.37       99.37    
        99.38    
  91    98.53       98.53       98.53       98.53       98.53       98.53       98.53       98.53       98.53       98.53    
        98.53       98.53       98.53       98.54       98.54       98.54       98.54       98.54       98.54       98.55    
        98.55       98.55       98.55       98.56       98.56       98.56       98.57       98.57       98.57       98.58    
        98.58       98.58       98.59       98.59       98.60       98.60       98.61       98.61       98.62       98.62    
        98.63       98.63       98.64       98.65       98.65       98.66       98.66       98.67       98.68       98.69    
        98.69       98.70       98.71       98.72       98.72       98.73       98.74       98.75       98.76       98.77    
        98.78       98.79       98.80       98.81       98.82       98.83       98.84       98.85       98.86       98.88    
        98.89       98.90       98.91       98.93       98.94       98.96       98.97       98.99       99.00       99.02    
        99.03       99.05       99.07       99.09       99.11       99.12       99.14       99.16       99.18       99.20    
        99.22       99.24       99.26       99.28       99.30       99.31       99.33       99.34       99.35       99.36    
        99.36    
  92    98.53       98.53       98.53       98.53       98.53       98.53       98.53       98.53       98.53       98.53    
        98.53       98.53       98.54       98.54       98.54       98.54       98.54       98.54       98.54       98.55    
        98.55       98.55       98.55       98.56       98.56       98.56       98.57       98.57       98.57       98.58    
        98.58       98.58       98.59       98.59       98.60       98.60       98.60       98.61       98.61       98.62    
        98.63       98.63       98.64       98.64       98.65       98.65       98.66       98.67       98.67       98.68    
        98.69       98.70       98.70       98.71       98.72       98.73       98.74       98.74       98.75       98.76    
        98.77       98.78       98.79       98.80       98.81       98.82       98.83       98.84       98.85       98.87    
        98.88       98.89       98.90       98.92       98.93       98.94       98.96       98.97       98.99       99.00    
        99.02       99.04       99.05       99.07       99.09       99.11       99.13       99.15       99.17       99.19    
        99.20       99.22       99.24       99.26       99.28       99.30       99.31       99.32       99.33       99.34    
        99.34    
  93    98.53       98.53       98.53       98.53       98.53       98.53       98.53       98.53       98.53       98.53    
        98.53       98.53       98.53       98.54       98.54       98.54       98.54       98.54       98.54       98.55    
        98.55       98.55       98.55       98.56       98.56       98.56       98.56       98.57       98.57       98.57    
        98.58       98.58       98.59       98.59       98.59       98.60       98.60       98.61       98.61       98.62    
        98.62       98.63       98.63       98.64       98.64       98.65       98.66       98.66       98.67       98.68    
        98.68       98.69       98.70       98.70       98.71       98.72       98.73       98.74       98.74       98.75    
        98.76       98.77       98.78       98.79       98.80       98.81       98.82       98.83       98.84       98.85    
        98.87       98.88       98.89       98.90       98.92       98.93       98.94       98.96       98.97       98.99    
        99.01       99.02       99.04       99.06       99.07       99.09       99.11       99.13       99.15       99.17    
        99.19       99.21       99.23       99.24       99.26       99.28       99.29       99.31       99.32       99.32    
        99.33    
  94    98.53       98.53       98.53       98.53       98.53       98.53       98.53       98.53       98.53       98.53    
        98.53       98.53       98.53       98.54       98.54       98.54       98.54       98.54       98.54       98.54    
        98.55       98.55       98.55       98.55       98.56       98.56       98.56       98.56       98.57       98.57    
        98.57       98.58       98.58       98.59       98.59       98.59       98.60       98.60       98.61       98.61    
        98.62       98.62       98.63       98.63       98.64       98.65       98.65       98.66       98.66       98.67    
        98.68       98.68       98.69       98.70       98.71       98.71       98.72       98.73       98.74       98.75    
        98.75       98.76       98.77       98.78       98.79       98.80       98.81       98.82       98.83       98.84    
        98.85       98.87       98.88       98.89       98.90       98.92       98.93       98.95       98.96       98.97    
        98.99       99.01       99.02       99.04       99.06       99.07       99.09       99.11       99.13       99.15    
        99.17       99.19       99.21       99.23       99.24       99.26       99.28       99.29       99.30       99.31    
        99.31    
  95    98.53       98.53       98.53       98.53       98.53       98.53       98.53       98.53       98.53       98.53    
        98.53       98.53       98.53       98.53       98.53       98.54       98.54       98.54       98.54       98.54    
        98.54       98.55       98.55       98.55       98.55       98.56       98.56       98.56       98.57       98.57    
        98.57       98.58       98.58       98.58       98.59       98.59       98.60       98.60       98.60       98.61    
        98.61       98.62       98.62       98.63       98.63       98.64       98.65       98.65       98.66       98.66    
        98.67       98.68       98.68       98.69       98.70       98.71       98.71       98.72       98.73       98.74    
        98.75       98.75       98.76       98.77       98.78       98.79       98.80       98.81       98.82       98.83    
        98.84       98.85       98.87       98.88       98.89       98.90       98.92       98.93       98.95       98.96    
        98.98       98.99       99.01       99.02       99.04       99.06       99.08       99.09       99.11       99.13    
        99.15       99.17       99.19       99.21       99.23       99.24       99.26       99.27       99.28       99.29    
        99.29    
  96    98.52       98.52       98.52       98.52       98.53       98.53       98.53       98.53       98.53       98.53    
        98.53       98.53       98.53       98.53       98.53       98.53       98.53       98.54       98.54       98.54    
        98.54       98.54       98.55       98.55       98.55       98.55       98.56       98.56       98.56       98.57    
        98.57       98.57       98.58       98.58       98.58       98.59       98.59       98.60       98.60       98.60    
        98.61       98.61       98.62       98.62       98.63       98.63       98.64       98.65       98.65       98.66    
        98.66       98.67       98.68       98.68       98.69       98.70       98.71       98.71       98.72       98.73    
        98.74       98.75       98.75       98.76       98.77       98.78       98.79       98.80       98.81       98.82    
        98.83       98.84       98.86       98.87       98.88       98.89       98.90       98.92       98.93       98.95    
        98.96       98.98       98.99       99.01       99.03       99.04       99.06       99.08       99.10       99.12    
        99.14       99.15       99.17       99.19       99.21       99.23       99.24       99.25       99.27       99.27    
        99.28    
  97    98.52       98.52       98.52       98.52       98.52       98.52       98.52       98.52       98.52       98.53    
        98.53       98.53       98.53       98.53       98.53       98.53       98.53       98.53       98.54       98.54    
        98.54       98.54       98.54       98.55       98.55       98.55       98.55       98.56       98.56       98.56    
        98.57       98.57       98.57       98.58       98.58       98.58       98.59       98.59       98.60       98.60    
        98.60       98.61       98.61       98.62       98.62       98.63       98.64       98.64       98.65       98.65    
        98.66       98.66       98.67       98.68       98.68       98.69       98.70       98.71       98.71       98.72    
        98.73       98.74       98.75       98.75       98.76       98.77       98.78       98.79       98.80       98.81    
        98.82       98.83       98.84       98.86       98.87       98.88       98.89       98.91       98.92       98.93    
        98.95       98.96       98.98       98.99       99.01       99.03       99.05       99.06       99.08       99.10    
        99.12       99.14       99.16       99.18       99.19       99.21       99.23       99.24       99.25       99.26    
        99.26    
  98    98.52       98.52       98.52       98.52       98.52       98.52       98.52       98.52       98.52       98.52    
        98.52       98.52       98.53       98.53       98.53       98.53       98.53       98.53       98.53       98.53    
        98.54       98.54       98.54       98.54       98.55       98.55       98.55       98.55       98.56       98.56    
        98.56       98.57       98.57       98.57       98.58       98.58       98.58       98.59       98.59       98.60    
        98.60       98.61       98.61       98.61       98.62       98.62       98.63       98.64       98.64       98.65    
        98.65       98.66       98.67       98.67       98.68       98.69       98.69       98.70       98.71       98.71    
        98.72       98.73       98.74       98.75       98.76       98.76       98.77       98.78       98.79       98.80    
        98.81       98.82       98.84       98.85       98.86       98.87       98.88       98.90       98.91       98.92    
        98.94       98.95       98.97       98.98       99.00       99.02       99.03       99.05       99.07       99.09    
        99.11       99.13       99.15       99.16       99.18       99.20       99.21       99.23       99.24       99.24    
        99.25    
  99    98.52       98.52       98.52       98.52       98.52       98.52       98.52       98.52       98.52       98.52    
        98.52       98.52       98.52       98.52       98.53       98.53       98.53       98.53       98.53       98.53    
        98.53       98.54       98.54       98.54       98.54       98.55       98.55       98.55       98.55       98.56    
        98.56       98.56       98.57       98.57       98.57       98.58       98.58       98.58       98.59       98.59    
        98.60       98.60       98.61       98.61       98.62       98.62       98.63       98.63       98.64       98.64    
        98.65       98.65       98.66       98.67       98.67       98.68       98.69       98.69       98.70       98.71    
        98.72       98.72       98.73       98.74       98.75       98.76       98.77       98.78       98.79       98.80    
        98.81       98.82       98.83       98.84       98.85       98.86       98.87       98.89       98.90       98.91    
        98.93       98.94       98.96       98.97       98.99       99.01       99.02       99.04       99.06       99.08    
        99.10       99.12       99.13       99.15       99.17       99.19       99.20       99.22       99.23       99.23    
        99.24    
 100    98.52       98.52       98.52       98.52       98.52       98.52       98.52       98.52       98.52       98.52    
        98.52       98.52       98.52       98.52       98.52       98.53       98.53       98.53       98.53       98.53    
        98.53       98.53       98.54       98.54       98.54       98.54       98.55       98.55       98.55       98.55    
        98.56       98.56       98.56       98.57       98.57       98.57       98.58       98.58       98.59       98.59    
        98.59       98.60       98.60       98.61       98.61       98.62       98.62       98.63       98.63       98.64    
        98.65       98.65       98.66       98.66       98.67       98.68       98.68       98.69       98.70       98.71    
        98.71       98.72       98.73       98.74       98.75       98.75       98.76       98.77       98.78       98.79    
        98.80       98.81       98.82       98.83       98.84       98.86       98.87       98.88       98.89       98.91    
        98.92       98.94       98.95       98.97       98.98       99.00       99.02       99.03       99.05       99.07    
        99.09       99.11       99.13       99.15       99.16       99.18       99.20       99.21       99.22       99.23    
        99.23    
 101    98.52       98.52       98.52       98.52       98.52       98.52       98.52       98.52       98.52       98.52    
        98.52       98.52       98.52       98.52       98.52       98.52       98.53       98.53       98.53       98.53    
        98.53       98.53       98.54       98.54       98.54       98.54       98.55       98.55       98.55       98.55    
        98.56       98.56       98.56       98.57       98.57       98.57       98.58       98.58       98.58       98.59    
        98.59       98.60       98.60       98.61       98.61       98.62       98.62       98.63       98.63       98.64    
        98.64       98.65       98.66       98.66       98.67       98.68       98.68       98.69       98.70       98.70    
        98.71       98.72       98.73       98.73       98.74       98.75       98.76       98.77       98.78       98.79    
        98.80       98.81       98.82       98.83       98.84       98.85       98.87       98.88       98.89       98.91    
        98.92       98.93       98.95       98.96       98.98       99.00       99.01       99.03       99.05       99.07    
        99.09       99.10       99.12       99.14       99.16       99.18       99.19       99.20       99.22       99.22    
        99.23    

 HEAD WILL BE SAVED ON UNIT 1016 AT END OF TIME STEP    1, STRESS PERIOD    1


  VOLUME BUDGET FOR ENTIRE MODEL AT END OF TIME STEP    1, STRESS PERIOD   1
  ---------------------------------------------------------------------------------------------------

     CUMULATIVE VOLUME      L**3       RATES FOR THIS TIME STEP      L**3/T          PACKAGE NAME    
     ------------------                 ------------------------                     ----------------

           IN:                                      IN:
           ---                                      ---
              STO-SS =         193.0846                STO-SS =         193.0846     STORAGE                          
              STO-SY =           0.0000                STO-SY =           0.0000     STORAGE                          
                 WEL =           0.0000                   WEL =           0.0000     WEL_0                            
                RCHA =         949.0885                  RCHA =         949.0885     RCH                              
                 CHD =        1067.6962                   CHD =        1067.6962     CHD_0                            

            TOTAL IN =        2209.8693              TOTAL IN =        2209.8693

          OUT:                                     OUT:
          ----                                     ----
              STO-SS =           0.0000                STO-SS =           0.0000     STORAGE                          
              STO-SY =           0.0000                STO-SY =           0.0000     STORAGE                          
                 WEL =        2015.5267                   WEL =        2015.5267     WEL_0                            
                RCHA =           0.0000                  RCHA =           0.0000     RCH                              
                 CHD =         200.9076                   CHD =         200.9076     CHD_0                            

           TOTAL OUT =        2216.4343             TOTAL OUT =        2216.4343

            IN - OUT =          -6.5650              IN - OUT =          -6.5650

 PERCENT DISCREPANCY =          -0.30     PERCENT DISCREPANCY =          -0.30




         TIME SUMMARY AT END OF TIME STEP    1 IN STRESS PERIOD    1
                    SECONDS     MINUTES      HOURS       DAYS        YEARS
                    -----------------------------------------------------------
   TIME STEP LENGTH  86400.      1440.0      24.000      1.0000     2.73785E-03
 STRESS PERIOD TIME  86400.      1440.0      24.000      1.0000     2.73785E-03
         TOTAL TIME  86400.      1440.0      24.000      1.0000     2.73785E-03


end timestep

