                                   MODFLOW 6
                U.S. GEOLOGICAL SURVEY MODULAR HYDROLOGIC MODEL
                          GROUNDWATER FLOW MODEL (GWF)
                            VERSION 6.4.2 06/28/2023

         MODFLOW 6 compiled Jul 12 2023 01:08:19 with GCC version 9.4.0

This software has been approved for release by the U.S. Geological 
Survey (USGS). Although the software has been subjected to rigorous 
review, the USGS reserves the right to update the software as needed 
pursuant to further analysis and review. No warranty, expressed or 
implied, is made by the USGS or the U.S. Government as to the 
functionality of the software and related material nor shall the 
fact of release constitute any such warranty. Furthermore, the 
software is released on condition that neither the USGS nor the U.S. 
Government shall be held liable for any damages resulting from its 
authorized or unauthorized use. Also refer to the USGS Water 
Resources Software User Rights Notice for complete use, copyright, 
and distribution information.


As a work of the United States Government, this USGS product is 
in the public domain within the United States. You can copy, 
modify, distribute, and perform the work, even for commercial 
purposes, all without asking permission. Additionally, USGS 
waives copyright and related rights in the work worldwide 
through CC0 1.0 Universal Public Domain Dedication 
(https://creativecommons.org/publicdomain/zero/1.0/).

The following GNU Lesser General Public License (LGPL) libraries
are used in this USGS product:

    SPARSKIT version 2.0
      ilut, luson, and qsplit 
      (https://www-users.cse.umn.edu/~saad/software/SPARSKIT/)

    RCM - Reverse Cuthill McKee Ordering
      (https://people.math.sc.edu/Burkardt/f_src/rcm/rcm.html)

    BLAS - Basic Linear Algebra Subprograms Level 1
      (https://people.math.sc.edu/Burkardt/f_src/blas1_d/blas1_d.html)

    SPARSEKIT - Sparse Matrix Utility Package
      amux, dperm, dvperm, rperm, and cperm
      (https://people.sc.fsu.edu/~jburkardt/f77_src/sparsekit/sparsekit.html)

The following BSD-3 License libraries are used in this USGS product:

    Modern Fortran DAG Library
      Copyright (c) 2018, Jacob Williams
      All rights reserved.
      (https://github.com/jacobwilliams/daglib)

MODFLOW 6 compiler options: -cpp -I ./obj_mf6 -imultiarch x86_64-linux-gnu -D
__linux__ -mtune=generic -march=x86-64 -auxbase-strip
./obj_mf6/compilerversion.o -O2 -Wtabs -Wline-truncation -Wunused-label
-Wunused-variable -Wpedantic -Wcharacter-truncation -std=f2008 -fbacktrace
-ffpe-summary=overflow -ffpe-trap=overflow,zero,invalid -fall-intrinsics -J
./mod_mf6 -fpre-include=/usr/include/finclude/math-vector-fortran.h

System command used to initiate simulation:
/home/ubuntu/mf6

MODFLOW was compiled using uniform precision.

Real Variables
  KIND: 8
  TINY (smallest non-zero value):    2.225074-308
  HUGE (largest value):    1.797693+308
  PRECISION: 15
  SIZE IN BITS: 64

Integer Variables
  KIND: 4
  HUGE (largest value): 2147483647
  SIZE IN BITS: 32

Long Integer Variables
  KIND: 8
  HUGE (largest value): 9223372036854775807
  SIZE IN BITS: 64

Logical Variables
  KIND: 4
  SIZE IN BITS: 32

 NAMEFILE OPTIONS:
    NEWTON-RAPHSON method enabled for the model.
    NEWTON-RAPHSON UNDER-RELAXATION based on the bottom elevation of the model will be applied to the model.
    FLOWS WILL BE SAVED TO BUDGET FILE SPECIFIED IN OUTPUT CONTROL
 END NAMEFILE OPTIONS:

 DIS -- STRUCTURED GRID DISCRETIZATION PACKAGE, VERSION 2 : 3/27/2014 - INPUT READ FROM MEMPATH: __INPUT__/FLOPY_MODELS_3/DIS                      


 NPF -- NODE PROPERTY FLOW PACKAGE, VERSION 1, 3/30/2015 INPUT READ FROM MEMPATH: __INPUT__/FLOPY_MODELS_3/NPF                      

 Setting Discretization Options
 End Setting Discretization Options

 Setting Discretization Dimensions
    NLAY = 10
    NROW = 101
    NCOL = 101
 End Setting Discretization Dimensions

 Setting Discretization Griddata
    DELR set from input file
    DELC set from input file
    TOP set from input file
    BOTM set from input file
 End Setting Discretization Griddata

 Setting NPF Options
 End Setting NPF Options

 Setting NPF Griddata
    ICELLTYPE set from input file
    K set from input file
    K33 not provided.  Setting K33 = K.
    K22 not provided.  Setting K22 = K.
 End Setting NPF Griddata


 WEL   -- WEL PACKAGE, VERSION 8, 2/22/2014 INPUT READ FROM UNIT 1008
 # File generated by Flopy version 3.4.1 on 07/15/2023 at 05:15:27.

 PROCESSING WEL OPTIONS
 END OF WEL OPTIONS

 PROCESSING WEL DIMENSIONS
    MAXBOUND =       2
 END OF WEL DIMENSIONS

 RCH   -- RCH PACKAGE, VERSION 8, 2/22/2014 INPUT READ FROM UNIT 1009
 # File generated by Flopy version 3.4.1 on 07/15/2023 at 05:15:27.

 PROCESSING RCH OPTIONS
    RECHARGE INPUT WILL BE READ AS ARRAY(S).
 END OF RCHA OPTIONS

 CHD   -- CHD PACKAGE, VERSION 8, 2/22/2014 INPUT READ FROM UNIT 1010
 # File generated by Flopy version 3.4.1 on 07/15/2023 at 05:15:27.

 PROCESSING CHD OPTIONS
 END OF CHD OPTIONS

 PROCESSING CHD DIMENSIONS
    MAXBOUND =     299
 END OF CHD DIMENSIONS

 IC -- INITIAL CONDITIONS PACKAGE, VERSION 8, 3/28/2015 INPUT READ FROM UNIT 1006
 # File generated by Flopy version 3.4.1 on 07/15/2023 at 05:15:27.
 PROCESSING GRIDDATA
 END PROCESSING GRIDDATA

 STO -- STORAGE PACKAGE, VERSION 1, 5/19/2014 INPUT READ FROM UNIT 1005


 # File generated by Flopy version 3.4.1 on 07/15/2023 at 05:15:27.
 PROCESSING STORAGE OPTIONS
 END OF STORAGE OPTIONS
 PROCESSING GRIDDATA

                 ICONVERT = 1

         SPECIFIC STORAGE =  0.1000000E-04

           SPECIFIC YIELD =  0.1500000    
 END PROCESSING GRIDDATA
    BINARY GRID INFORMATION WILL BE WRITTEN TO:
      UNIT NUMBER: 1014
      FILE NAME: FloPy_ModelS_3.dis.grb

 OPENED FloPy_ModelS_3.dis.grb
 FILE TYPE:DATA(BINARY)   UNIT 1014   STATUS:REPLACE             
 FORMAT:UNFORMATTED            ACCESS:STREAM              
 ACTION:READWRITE           

      THE LAST TIME STEP WILL BE PRINTED
      THE LAST TIME STEP WILL BE PRINTED
 # File generated by Flopy version 3.4.1 on 07/15/2023 at 05:15:27.

 PROCESSING OC OPTIONS

    BUDGET INFORMATION WILL BE WRITTEN TO:
      UNIT NUMBER: 1015
      FILE NAME: FloPy_ModelS_3.cbb

 OPENED FloPy_ModelS_3.cbb
 FILE TYPE:DATA(BINARY)   UNIT 1015   STATUS:REPLACE             
 FORMAT:UNFORMATTED            ACCESS:STREAM              
 ACTION:READWRITE           

    HEAD INFORMATION WILL BE WRITTEN TO:
      UNIT NUMBER: 1016
      FILE NAME: FloPy_ModelS_3.hds

 OPENED FloPy_ModelS_3.hds
 FILE TYPE:DATA(BINARY)   UNIT 1016   STATUS:REPLACE             
 FORMAT:UNFORMATTED            ACCESS:STREAM              
 ACTION:READWRITE           

 END OF OC OPTIONS

start timestep kper="1" kstp="1" mode="normal"


 BEGIN READING OUTPUT CONTROL FOR STRESS PERIOD 1
      ALL TIME STEPS WILL BE SAVED
      ALL TIME STEPS WILL BE SAVED
      THE LAST TIME STEP WILL BE PRINTED

 END READING OUTPUT CONTROL FOR STRESS PERIOD 1


 STRESS PERIOD 1 IS TRANSIENT


                 RECHARGE =  0.9601150E-02
 UBDSV1 SAVING           STO-SS ON UNIT   1015 AT TIME STEP      1, STRESS PERIOD      1
 UBDSV1 SAVING           STO-SY ON UNIT   1015 AT TIME STEP      1, STRESS PERIOD      1
 UBDSV1 SAVING     FLOW-JA-FACE ON UNIT   1015 AT TIME STEP      1, STRESS PERIOD      1
 UBDSV06 SAVING              WEL IN MODEL FLOPY_MODELS_3   PACKAGE FLOPY_MODELS_3  CONNECTED TO MODEL FLOPY_MODELS_3   PACKAGE WEL_0            ON UNIT   1015 AT TIME STEP      1, STRESS PERIOD      1
 UBDSV06 SAVING             RCHA IN MODEL FLOPY_MODELS_3   PACKAGE FLOPY_MODELS_3  CONNECTED TO MODEL FLOPY_MODELS_3   PACKAGE RCH              ON UNIT   1015 AT TIME STEP      1, STRESS PERIOD      1
 UBDSV06 SAVING              CHD IN MODEL FLOPY_MODELS_3   PACKAGE FLOPY_MODELS_3  CONNECTED TO MODEL FLOPY_MODELS_3   PACKAGE CHD_0            ON UNIT   1015 AT TIME STEP      1, STRESS PERIOD      1
1
  HEAD IN LAYER   1 AT END OF TIME STEP   1 IN STRESS PERIOD    1
  ---------------------------------------------------------------------------

            1           2           3           4           5           6           7           8           9          10
           11          12          13          14          15          16          17          18          19          20
           21          22          23          24          25          26          27          28          29          30
           31          32          33          34          35          36          37          38          39          40
           41          42          43          44          45          46          47          48          49          50
           51          52          53          54          55          56          57          58          59          60
           61          62          63          64          65          66          67          68          69          70
           71          72          73          74          75          76          77          78          79          80
           81          82          83          84          85          86          87          88          89          90
           91          92          93          94          95          96          97          98          99         100
          101
 ........................................................................................................................
   1    99.54       100.0       100.0       100.0       100.0       100.0       100.0       100.0       100.0       100.0    
        100.0       100.0       100.0       100.0       100.0       100.0       100.0       100.0       100.0       100.0    
        100.0       100.0       100.0       100.0       100.0       100.0       100.0       100.0       100.0       100.0    
        100.0       100.0       100.0       100.0       100.0       100.0       100.0       100.0       100.0       100.0    
        100.0       100.0       100.0       100.0       100.0       100.0       100.0       100.0       100.0       100.0    
        100.0       100.0       100.0       100.0       100.0       100.0       100.0       100.0       100.0       100.0    
        100.0       100.0       100.0       100.0       100.0       100.0       100.0       100.0       100.0       100.0    
        100.0       100.0       100.0       100.0       100.0       100.0       100.0       100.0       100.0       100.0    
        100.0       100.0       100.0       100.0       100.0       100.0       100.0       100.0       100.0       100.0    
        100.0       100.0       100.0       100.0       100.0       100.0       100.0       100.0       100.0       100.0    
        100.0    
   2    99.29       99.41       99.45       99.46       99.46       99.46       99.46       99.45       99.45       99.44    
        99.43       99.42       99.42       99.41       99.40       99.39       99.38       99.38       99.37       99.36    
        99.36       99.35       99.35       99.35       99.34       99.34       99.34       99.35       99.35       99.36    
        99.36       99.37       99.38       99.38       99.39       99.40       99.41       99.42       99.43       99.44    
        99.45       99.46       99.47       99.47       99.48       99.49       99.49       99.50       99.50       99.51    
        99.51       99.51       99.51       99.51       99.51       99.51       99.50       99.50       99.50       99.49    
        99.49       99.48       99.48       99.47       99.47       99.46       99.46       99.45       99.45       99.45    
        99.45       99.45       99.45       99.45       99.45       99.46       99.46       99.47       99.48       99.49    
        99.50       99.51       99.53       99.54       99.56       99.57       99.59       99.61       99.62       99.64    
        99.66       99.68       99.70       99.72       99.74       99.76       99.78       99.81       99.84       99.90    
        100.0    
   3    99.04       99.08       99.10       99.11       99.11       99.11       99.10       99.09       99.08       99.07    
        99.06       99.05       99.03       99.02       99.00       98.99       98.98       98.96       98.95       98.94    
        98.93       98.92       98.92       98.91       98.91       98.91       98.91       98.92       98.92       98.93    
        98.94       98.95       98.96       98.98       98.99       99.01       99.02       99.04       99.05       99.07    
        99.09       99.10       99.12       99.13       99.14       99.15       99.16       99.17       99.18       99.18    
        99.19       99.19       99.19       99.19       99.19       99.18       99.18       99.17       99.17       99.16    
        99.15       99.14       99.14       99.13       99.12       99.11       99.10       99.09       99.09       99.08    
        99.08       99.08       99.08       99.08       99.09       99.10       99.11       99.12       99.13       99.15    
        99.17       99.19       99.21       99.24       99.26       99.29       99.32       99.35       99.38       99.41    
        99.44       99.47       99.50       99.53       99.57       99.60       99.64       99.69       99.75       99.84    
        100.0    
   4    98.83       98.84       98.85       98.85       98.85       98.85       98.84       98.83       98.81       98.80    
        98.78       98.77       98.75       98.73       98.71       98.69       98.67       98.66       98.64       98.63    
        98.61       98.60       98.60       98.59       98.59       98.59       98.59       98.59       98.60       98.61    
        98.62       98.64       98.66       98.67       98.69       98.71       98.74       98.76       98.78       98.80    
        98.82       98.84       98.86       98.87       98.89       98.90       98.92       98.93       98.94       98.94    
        98.95       98.95       98.95       98.95       98.95       98.95       98.94       98.93       98.92       98.92    
        98.90       98.89       98.88       98.87       98.86       98.85       98.84       98.83       98.82       98.81    
        98.81       98.81       98.81       98.81       98.82       98.83       98.84       98.86       98.87       98.90    
        98.92       98.95       98.98       99.01       99.04       99.08       99.12       99.15       99.19       99.23    
        99.27       99.31       99.35       99.40       99.44       99.49       99.54       99.61       99.69       99.81    
        100.0    
   5    98.65       98.66       98.66       98.66       98.65       98.64       98.63       98.62       98.60       98.58    
        98.56       98.54       98.52       98.50       98.48       98.45       98.43       98.41       98.39       98.37    
        98.36       98.34       98.33       98.33       98.32       98.32       98.32       98.33       98.34       98.35    
        98.37       98.39       98.41       98.43       98.45       98.48       98.50       98.53       98.56       98.58    
        98.61       98.63       98.65       98.67       98.69       98.71       98.72       98.74       98.75       98.75    
        98.76       98.76       98.77       98.77       98.76       98.76       98.75       98.74       98.73       98.72    
        98.70       98.69       98.68       98.66       98.65       98.63       98.62       98.61       98.60       98.59    
        98.58       98.58       98.58       98.58       98.59       98.60       98.62       98.64       98.66       98.69    
        98.72       98.75       98.79       98.82       98.86       98.91       98.95       99.00       99.04       99.09    
        99.14       99.19       99.24       99.29       99.34       99.40       99.47       99.54       99.64       99.78    
        100.0    
   6    98.50       98.50       98.50       98.49       98.48       98.47       98.46       98.44       98.42       98.40    
        98.38       98.35       98.33       98.30       98.27       98.25       98.22       98.19       98.17       98.15    
        98.13       98.12       98.10       98.09       98.09       98.09       98.09       98.10       98.11       98.13    
        98.15       98.17       98.19       98.22       98.24       98.27       98.30       98.33       98.36       98.39    
        98.42       98.45       98.48       98.50       98.52       98.54       98.56       98.57       98.59       98.60    
        98.60       98.61       98.61       98.61       98.60       98.60       98.59       98.58       98.56       98.55    
        98.53       98.52       98.50       98.48       98.46       98.45       98.43       98.42       98.40       98.39    
        98.38       98.38       98.38       98.38       98.39       98.41       98.42       98.44       98.47       98.50    
        98.54       98.57       98.62       98.66       98.71       98.76       98.81       98.86       98.91       98.97    
        99.02       99.08       99.14       99.20       99.26       99.33       99.40       99.49       99.60       99.76    
        100.0    
   7    98.36       98.36       98.35       98.35       98.34       98.32       98.30       98.29       98.26       98.24    
        98.21       98.18       98.15       98.12       98.09       98.06       98.03       98.00       97.97       97.95    
        97.93       97.91       97.89       97.88       97.88       97.88       97.88       97.89       97.90       97.92    
        97.94       97.97       97.99       98.02       98.06       98.09       98.12       98.16       98.19       98.23    
        98.26       98.29       98.32       98.35       98.37       98.39       98.41       98.43       98.44       98.46    
        98.46       98.47       98.47       98.47       98.46       98.45       98.44       98.43       98.42       98.40    
        98.38       98.36       98.34       98.32       98.30       98.28       98.26       98.24       98.23       98.21    
        98.20       98.20       98.20       98.20       98.21       98.22       98.24       98.27       98.29       98.33    
        98.37       98.41       98.46       98.51       98.56       98.62       98.67       98.73       98.79       98.86    
        98.92       98.98       99.05       99.11       99.18       99.26       99.35       99.44       99.57       99.74    
        100.0    
   8    98.23       98.23       98.22       98.21       98.20       98.19       98.17       98.14       98.12       98.09    
        98.06       98.03       97.99       97.96       97.92       97.89       97.85       97.82       97.79       97.76    
        97.73       97.71       97.69       97.68       97.68       97.67       97.68       97.69       97.70       97.72    
        97.75       97.78       97.81       97.84       97.88       97.92       97.96       98.00       98.04       98.07    
        98.11       98.15       98.18       98.21       98.24       98.26       98.28       98.30       98.32       98.33    
        98.34       98.34       98.34       98.34       98.34       98.33       98.31       98.30       98.28       98.26    
        98.24       98.22       98.20       98.17       98.15       98.12       98.10       98.08       98.06       98.04    
        98.03       98.02       98.02       98.02       98.03       98.05       98.07       98.09       98.13       98.16    
        98.21       98.26       98.31       98.37       98.42       98.49       98.55       98.62       98.68       98.75    
        98.82       98.89       98.96       99.04       99.12       99.20       99.29       99.40       99.54       99.72    
        100.0    
   9    98.12       98.11       98.11       98.09       98.08       98.06       98.04       98.01       97.98       97.95    
        97.92       97.88       97.84       97.80       97.76       97.72       97.68       97.64       97.61       97.57    
        97.55       97.52       97.50       97.49       97.48       97.48       97.48       97.49       97.51       97.53    
        97.56       97.59       97.63       97.67       97.71       97.76       97.80       97.84       97.89       97.93    
        97.97       98.01       98.05       98.08       98.11       98.14       98.16       98.18       98.20       98.21    
        98.22       98.23       98.23       98.22       98.22       98.21       98.19       98.18       98.16       98.14    
        98.11       98.08       98.06       98.03       98.00       97.97       97.94       97.92       97.90       97.88    
        97.86       97.85       97.85       97.85       97.86       97.87       97.89       97.92       97.96       98.00    
        98.05       98.10       98.16       98.23       98.29       98.36       98.43       98.50       98.58       98.65    
        98.73       98.81       98.89       98.97       99.05       99.14       99.24       99.36       99.51       99.70    
        100.0    
  10    98.01       98.00       97.99       97.98       97.96       97.94       97.92       97.89       97.86       97.82    
        97.78       97.74       97.70       97.65       97.61       97.56       97.52       97.47       97.43       97.39    
        97.36       97.33       97.31       97.29       97.29       97.28       97.29       97.30       97.32       97.35    
        97.38       97.42       97.46       97.50       97.55       97.60       97.65       97.70       97.75       97.79    
        97.84       97.88       97.92       97.96       97.99       98.02       98.05       98.07       98.09       98.10    
        98.11       98.12       98.12       98.12       98.11       98.10       98.08       98.06       98.04       98.01    
        97.99       97.96       97.92       97.89       97.86       97.82       97.79       97.76       97.74       97.71    
        97.69       97.68       97.67       97.68       97.68       97.70       97.72       97.75       97.79       97.84    
        97.89       97.95       98.02       98.09       98.16       98.24       98.31       98.39       98.47       98.56    
        98.64       98.72       98.81       98.90       98.99       99.09       99.20       99.32       99.48       99.68    
        100.0    
  11    97.90       97.90       97.89       97.88       97.86       97.83       97.81       97.77       97.74       97.70    
        97.65       97.61       97.56       97.51       97.46       97.41       97.36       97.31       97.26       97.22    
        97.18       97.15       97.12       97.10       97.09       97.09       97.09       97.11       97.13       97.16    
        97.20       97.24       97.29       97.34       97.39       97.44       97.50       97.55       97.61       97.66    
        97.71       97.76       97.80       97.85       97.88       97.92       97.94       97.97       97.99       98.00    
        98.01       98.02       98.02       98.01       98.00       97.99       97.97       97.95       97.93       97.90    
        97.87       97.83       97.80       97.76       97.72       97.68       97.64       97.61       97.58       97.55    
        97.53       97.51       97.50       97.50       97.51       97.52       97.55       97.58       97.63       97.68    
        97.74       97.80       97.87       97.95       98.03       98.11       98.20       98.28       98.37       98.46    
        98.55       98.64       98.74       98.83       98.93       99.04       99.15       99.28       99.45       99.67    
        100.0    
  12    97.81       97.80       97.79       97.77       97.75       97.73       97.70       97.66       97.62       97.58    
        97.53       97.48       97.42       97.37       97.31       97.25       97.20       97.14       97.09       97.04    
        97.00       96.96       96.93       96.91       96.89       96.89       96.90       96.91       96.94       96.97    
        97.01       97.06       97.11       97.17       97.23       97.29       97.35       97.42       97.48       97.53    
        97.59       97.64       97.69       97.74       97.78       97.81       97.84       97.87       97.89       97.91    
        97.92       97.92       97.92       97.92       97.91       97.89       97.87       97.85       97.82       97.79    
        97.75       97.71       97.67       97.63       97.58       97.54       97.50       97.46       97.42       97.38    
        97.36       97.34       97.32       97.32       97.33       97.34       97.37       97.41       97.46       97.51    
        97.58       97.65       97.73       97.81       97.90       97.99       98.08       98.18       98.27       98.37    
        98.47       98.57       98.67       98.77       98.87       98.99       99.11       99.25       99.42       99.65    
        100.0    
  13    97.71       97.71       97.70       97.68       97.66       97.63       97.59       97.56       97.51       97.46    
        97.41       97.35       97.29       97.23       97.17       97.10       97.04       96.98       96.92       96.86    
        96.81       96.77       96.73       96.71       96.70       96.69       96.70       96.72       96.75       96.78    
        96.83       96.88       96.94       97.01       97.07       97.14       97.21       97.28       97.35       97.41    
        97.47       97.53       97.58       97.63       97.68       97.71       97.75       97.78       97.80       97.81    
        97.83       97.83       97.83       97.82       97.81       97.80       97.77       97.75       97.71       97.68    
        97.64       97.59       97.55       97.50       97.45       97.40       97.35       97.30       97.26       97.22    
        97.19       97.16       97.15       97.14       97.14       97.16       97.19       97.23       97.28       97.34    
        97.41       97.49       97.58       97.67       97.77       97.87       97.97       98.07       98.18       98.28    
        98.39       98.49       98.60       98.71       98.82       98.94       99.07       99.21       99.39       99.63    
        100.0    
  14    97.63       97.62       97.61       97.59       97.56       97.53       97.50       97.45       97.41       97.35    
        97.30       97.23       97.17       97.10       97.03       96.95       96.88       96.81       96.74       96.68    
        96.63       96.58       96.54       96.51       96.49       96.49       96.50       96.52       96.55       96.59    
        96.65       96.71       96.77       96.85       96.92       97.00       97.07       97.15       97.22       97.29    
        97.36       97.42       97.48       97.53       97.58       97.62       97.66       97.69       97.71       97.73    
        97.74       97.75       97.74       97.74       97.72       97.71       97.68       97.65       97.62       97.57    
        97.53       97.48       97.43       97.37       97.32       97.26       97.20       97.15       97.10       97.05    
        97.01       96.98       96.96       96.95       96.96       96.97       97.00       97.05       97.10       97.17    
        97.25       97.33       97.43       97.53       97.64       97.74       97.85       97.97       98.08       98.19    
        98.30       98.42       98.53       98.64       98.76       98.89       99.02       99.18       99.37       99.62    
        100.0    
  15    97.55       97.54       97.52       97.50       97.48       97.44       97.40       97.36       97.31       97.25    
        97.18       97.12       97.04       96.97       96.89       96.81       96.73       96.65       96.57       96.50    
        96.44       96.38       96.34       96.31       96.29       96.28       96.29       96.32       96.35       96.40    
        96.46       96.53       96.60       96.68       96.77       96.85       96.94       97.02       97.10       97.18    
        97.25       97.32       97.38       97.44       97.49       97.53       97.57       97.60       97.63       97.65    
        97.66       97.66       97.66       97.66       97.64       97.62       97.59       97.56       97.52       97.48    
        97.43       97.37       97.31       97.25       97.19       97.12       97.06       97.00       96.94       96.88    
        96.84       96.80       96.78       96.76       96.77       96.78       96.81       96.86       96.92       96.99    
        97.08       97.18       97.28       97.39       97.50       97.62       97.74       97.86       97.98       98.10    
        98.22       98.34       98.46       98.59       98.71       98.84       98.98       99.15       99.34       99.60    
        100.0    
  16    97.47       97.46       97.45       97.43       97.40       97.36       97.32       97.27       97.21       97.15    
        97.08       97.00       96.93       96.84       96.76       96.67       96.58       96.49       96.41       96.33    
        96.25       96.19       96.14       96.10       96.08       96.07       96.08       96.11       96.15       96.21    
        96.27       96.35       96.44       96.52       96.62       96.71       96.80       96.89       96.98       97.07    
        97.15       97.22       97.29       97.35       97.40       97.45       97.49       97.53       97.55       97.57    
        97.58       97.59       97.59       97.58       97.56       97.54       97.51       97.47       97.43       97.38    
        97.33       97.27       97.20       97.13       97.06       96.99       96.92       96.85       96.78       96.72    
        96.66       96.62       96.59       96.57       96.57       96.59       96.62       96.67       96.74       96.82    
        96.91       97.02       97.13       97.25       97.37       97.50       97.63       97.76       97.89       98.02    
        98.15       98.28       98.40       98.53       98.66       98.80       98.95       99.12       99.32       99.59    
        100.0    
  17    97.40       97.39       97.37       97.35       97.32       97.28       97.24       97.18       97.12       97.05    
        96.98       96.90       96.81       96.72       96.63       96.53       96.43       96.33       96.24       96.15    
        96.07       96.00       95.94       95.90       95.87       95.86       95.88       95.91       95.95       96.02    
        96.09       96.18       96.27       96.37       96.47       96.57       96.68       96.78       96.87       96.96    
        97.05       97.13       97.20       97.26       97.32       97.37       97.42       97.45       97.48       97.50    
        97.51       97.52       97.52       97.51       97.49       97.46       97.43       97.39       97.35       97.29    
        97.23       97.17       97.10       97.02       96.94       96.86       96.78       96.70       96.62       96.55    
        96.49       96.44       96.40       96.38       96.37       96.39       96.42       96.48       96.55       96.64    
        96.74       96.86       96.98       97.11       97.25       97.39       97.52       97.66       97.80       97.94    
        98.08       98.21       98.34       98.48       98.61       98.76       98.91       99.09       99.30       99.58    
        100.0    
  18    97.33       97.32       97.31       97.28       97.25       97.21       97.16       97.10       97.04       96.97    
        96.89       96.80       96.71       96.61       96.50       96.40       96.29       96.18       96.08       95.98    
        95.89       95.81       95.74       95.69       95.67       95.66       95.67       95.70       95.76       95.83    
        95.91       96.01       96.11       96.22       96.33       96.44       96.55       96.66       96.77       96.86    
        96.95       97.04       97.12       97.19       97.25       97.30       97.35       97.39       97.42       97.44    
        97.45       97.46       97.45       97.44       97.42       97.40       97.36       97.32       97.27       97.21    
        97.14       97.07       97.00       96.91       96.83       96.74       96.65       96.56       96.47       96.39    
        96.32       96.26       96.21       96.19       96.18       96.19       96.23       96.29       96.37       96.46    
        96.58       96.70       96.84       96.98       97.12       97.27       97.42       97.57       97.72       97.86    
        98.01       98.15       98.29       98.43       98.57       98.72       98.88       99.06       99.28       99.57    
        100.0    
  19    97.27       97.26       97.25       97.22       97.19       97.14       97.09       97.03       96.96       96.89    
        96.80       96.71       96.61       96.50       96.39       96.27       96.16       96.04       95.92       95.81    
        95.71       95.62       95.55       95.50       95.46       95.45       95.47       95.51       95.56       95.64    
        95.74       95.84       95.96       96.08       96.20       96.32       96.44       96.56       96.67       96.77    
        96.87       96.96       97.04       97.12       97.18       97.24       97.29       97.33       97.36       97.38    
        97.39       97.40       97.39       97.38       97.36       97.33       97.29       97.25       97.20       97.13    
        97.06       96.99       96.90       96.81       96.72       96.62       96.52       96.42       96.32       96.23    
        96.15       96.08       96.03       96.00       95.99       96.00       96.04       96.10       96.19       96.29    
        96.42       96.55       96.70       96.85       97.01       97.17       97.33       97.48       97.64       97.79    
        97.94       98.09       98.24       98.38       98.53       98.68       98.85       99.03       99.26       99.55    
        100.0    
  20    97.22       97.21       97.19       97.17       97.13       97.08       97.03       96.97       96.89       96.81    
        96.72       96.62       96.52       96.40       96.28       96.16       96.03       95.91       95.78       95.66    
        95.55       95.45       95.37       95.31       95.27       95.26       95.28       95.32       95.38       95.47    
        95.57       95.69       95.81       95.94       96.07       96.21       96.34       96.46       96.58       96.69    
        96.79       96.89       96.97       97.05       97.12       97.18       97.23       97.27       97.30       97.33    
        97.34       97.35       97.34       97.33       97.31       97.28       97.24       97.19       97.13       97.06    
        96.99       96.91       96.82       96.72       96.62       96.51       96.40       96.29       96.19       96.08    
        95.99       95.92       95.86       95.82       95.80       95.82       95.86       95.92       96.02       96.13    
        96.26       96.41       96.57       96.73       96.90       97.07       97.24       97.40       97.57       97.73    
        97.89       98.04       98.19       98.34       98.49       98.65       98.82       99.01       99.24       99.54    
        100.0    
  21    97.17       97.16       97.15       97.12       97.08       97.03       96.98       96.91       96.83       96.75    
        96.65       96.55       96.44       96.32       96.19       96.06       95.92       95.78       95.65       95.52    
        95.40       95.29       95.20       95.13       95.09       95.08       95.10       95.14       95.21       95.31    
        95.42       95.55       95.68       95.82       95.96       96.11       96.24       96.37       96.50       96.62    
        96.73       96.82       96.92       97.00       97.07       97.13       97.18       97.22       97.26       97.28    
        97.30       97.30       97.30       97.28       97.26       97.23       97.19       97.13       97.07       97.00    
        96.93       96.84       96.74       96.64       96.53       96.41       96.30       96.18       96.06       95.95    
        95.85       95.76       95.70       95.65       95.63       95.65       95.69       95.76       95.86       95.98    
        96.12       96.28       96.45       96.62       96.80       96.98       97.16       97.33       97.50       97.67    
        97.83       97.99       98.15       98.31       98.46       98.63       98.80       98.99       99.23       99.54    
        100.0    
  22    97.13       97.12       97.10       97.08       97.04       96.99       96.93       96.86       96.78       96.69    
        96.59       96.49       96.37       96.24       96.11       95.97       95.82       95.68       95.53       95.39    
        95.26       95.15       95.05       94.98       94.93       94.92       94.94       94.99       95.06       95.17    
        95.29       95.42       95.57       95.72       95.87       96.02       96.16       96.30       96.43       96.55    
        96.67       96.77       96.87       96.95       97.02       97.09       97.14       97.18       97.22       97.24    
        97.26       97.26       97.26       97.24       97.22       97.19       97.14       97.09       97.03       96.95    
        96.87       96.78       96.68       96.57       96.45       96.33       96.20       96.08       95.95       95.83    
        95.72       95.63       95.55       95.50       95.48       95.49       95.54       95.61       95.72       95.85    
        96.00       96.17       96.34       96.53       96.72       96.90       97.09       97.27       97.45       97.62    
        97.79       97.96       98.12       98.28       98.44       98.60       98.78       98.98       99.22       99.53    
        100.0    
  23    97.10       97.09       97.07       97.04       97.00       96.95       96.89       96.82       96.74       96.65    
        96.55       96.43       96.31       96.18       96.04       95.90       95.75       95.59       95.44       95.29    
        95.15       95.03       94.92       94.85       94.80       94.78       94.80       94.86       94.94       95.05    
        95.18       95.32       95.47       95.63       95.79       95.95       96.10       96.24       96.38       96.50    
        96.62       96.73       96.82       96.91       96.99       97.05       97.11       97.15       97.19       97.21    
        97.23       97.23       97.23       97.21       97.19       97.15       97.11       97.05       96.99       96.91    
        96.83       96.73       96.63       96.51       96.39       96.26       96.13       96.00       95.86       95.74    
        95.62       95.51       95.43       95.38       95.35       95.36       95.41       95.49       95.60       95.74    
        95.90       96.07       96.26       96.45       96.65       96.84       97.03       97.22       97.41       97.58    
        97.76       97.93       98.09       98.25       98.42       98.59       98.76       98.97       99.21       99.52    
        100.0    
  24    97.08       97.07       97.05       97.02       96.98       96.92       96.86       96.79       96.71       96.61    
        96.51       96.40       96.27       96.14       95.99       95.84       95.69       95.53       95.37       95.21    
        95.07       94.94       94.83       94.75       94.70       94.68       94.70       94.76       94.84       94.96    
        95.09       95.24       95.40       95.57       95.73       95.89       96.05       96.20       96.34       96.47    
        96.59       96.70       96.79       96.88       96.96       97.03       97.08       97.13       97.16       97.19    
        97.20       97.21       97.20       97.19       97.16       97.13       97.08       97.03       96.96       96.88    
        96.79       96.70       96.59       96.47       96.34       96.21       96.08       95.94       95.80       95.66    
        95.54       95.43       95.34       95.29       95.26       95.27       95.31       95.40       95.51       95.66    
        95.82       96.00       96.20       96.39       96.60       96.80       96.99       97.19       97.37       97.56    
        97.73       97.90       98.07       98.24       98.40       98.57       98.75       98.96       99.20       99.52    
        100.0    
  25    97.06       97.05       97.03       97.00       96.96       96.91       96.84       96.77       96.69       96.59    
        96.49       96.37       96.24       96.11       95.96       95.81       95.65       95.48       95.32       95.16    
        95.01       94.88       94.77       94.68       94.63       94.61       94.64       94.69       94.78       94.90    
        95.04       95.19       95.36       95.52       95.69       95.86       96.02       96.17       96.31       96.44    
        96.56       96.67       96.77       96.86       96.94       97.01       97.07       97.11       97.15       97.17    
        97.19       97.19       97.19       97.17       97.15       97.11       97.07       97.01       96.94       96.86    
        96.77       96.67       96.56       96.44       96.32       96.18       96.04       95.90       95.75       95.62    
        95.49       95.38       95.29       95.23       95.20       95.21       95.25       95.34       95.46       95.60    
        95.77       95.96       96.16       96.36       96.56       96.77       96.97       97.17       97.36       97.54    
        97.72       97.89       98.06       98.23       98.39       98.56       98.75       98.95       99.20       99.52    
        100.0    
  26    97.05       97.04       97.02       96.99       96.95       96.90       96.83       96.76       96.68       96.58    
        96.47       96.36       96.23       96.09       95.95       95.79       95.63       95.47       95.30       95.14    
        94.99       94.86       94.74       94.66       94.61       94.59       94.61       94.67       94.76       94.88    
        95.02       95.17       95.34       95.51       95.68       95.84       96.00       96.15       96.30       96.43    
        96.55       96.66       96.76       96.85       96.93       97.00       97.06       97.10       97.14       97.17    
        97.18       97.19       97.18       97.17       97.14       97.10       97.06       97.00       96.93       96.85    
        96.76       96.66       96.55       96.43       96.31       96.17       96.03       95.88       95.74       95.60    
        95.47       95.36       95.27       95.21       95.18       95.19       95.23       95.32       95.44       95.59    
        95.76       95.94       96.14       96.35       96.55       96.76       96.96       97.16       97.35       97.53    
        97.71       97.89       98.06       98.22       98.39       98.56       98.75       98.95       99.19       99.52    
        100.0    
  27    97.05       97.04       97.02       96.99       96.95       96.90       96.83       96.76       96.68       96.58    
        96.48       96.36       96.23       96.10       95.95       95.80       95.64       95.47       95.31       95.15    
        95.00       94.87       94.76       94.67       94.62       94.61       94.63       94.68       94.77       94.89    
        95.03       95.18       95.35       95.52       95.68       95.85       96.01       96.16       96.30       96.43    
        96.55       96.67       96.77       96.86       96.93       97.00       97.06       97.11       97.14       97.17    
        97.18       97.19       97.18       97.17       97.14       97.11       97.06       97.00       96.94       96.86    
        96.77       96.67       96.56       96.44       96.31       96.18       96.04       95.89       95.75       95.61    
        95.49       95.38       95.29       95.22       95.20       95.21       95.25       95.34       95.46       95.60    
        95.77       95.96       96.16       96.36       96.57       96.77       96.97       97.17       97.36       97.54    
        97.72       97.89       98.06       98.23       98.40       98.57       98.75       98.95       99.20       99.52    
        100.0    
  28    97.06       97.05       97.03       97.00       96.96       96.90       96.84       96.77       96.69       96.59    
        96.49       96.37       96.25       96.12       95.97       95.82       95.67       95.51       95.35       95.19    
        95.05       94.92       94.81       94.73       94.68       94.66       94.68       94.74       94.83       94.94    
        95.07       95.22       95.38       95.55       95.71       95.87       96.03       96.18       96.32       96.45    
        96.57       96.68       96.78       96.87       96.94       97.01       97.07       97.11       97.15       97.18    
        97.19       97.20       97.19       97.18       97.15       97.12       97.07       97.02       96.95       96.87    
        96.78       96.69       96.58       96.46       96.34       96.21       96.07       95.93       95.79       95.66    
        95.53       95.43       95.34       95.28       95.26       95.27       95.31       95.40       95.51       95.66    
        95.82       96.00       96.20       96.40       96.60       96.80       97.00       97.19       97.38       97.56    
        97.74       97.91       98.07       98.24       98.41       98.58       98.76       98.96       99.20       99.52    
        100.0    
  29    97.07       97.06       97.04       97.01       96.97       96.92       96.86       96.79       96.71       96.62    
        96.52       96.40       96.28       96.15       96.01       95.87       95.72       95.56       95.41       95.26    
        95.12       95.00       94.90       94.82       94.77       94.76       94.78       94.83       94.91       95.02    
        95.15       95.29       95.45       95.60       95.76       95.92       96.07       96.22       96.35       96.48    
        96.60       96.70       96.80       96.89       96.96       97.03       97.09       97.13       97.17       97.19    
        97.21       97.21       97.21       97.19       97.17       97.14       97.09       97.04       96.97       96.90    
        96.81       96.72       96.61       96.50       96.38       96.25       96.12       95.99       95.85       95.73    
        95.61       95.51       95.43       95.37       95.35       95.36       95.41       95.49       95.60       95.74    
        95.90       96.07       96.26       96.45       96.65       96.85       97.04       97.23       97.41       97.59    
        97.76       97.93       98.10       98.26       98.42       98.59       98.77       98.97       99.21       99.53    
        100.0    
  30    97.09       97.08       97.06       97.03       96.99       96.95       96.89       96.82       96.74       96.65    
        96.55       96.44       96.33       96.20       96.07       95.93       95.78       95.64       95.49       95.35    
        95.22       95.11       95.01       94.94       94.89       94.88       94.90       94.95       95.03       95.13    
        95.25       95.39       95.53       95.68       95.83       95.98       96.13       96.27       96.40       96.52    
        96.63       96.74       96.83       96.92       96.99       97.06       97.11       97.16       97.19       97.22    
        97.23       97.24       97.23       97.22       97.20       97.16       97.12       97.07       97.01       96.93    
        96.85       96.76       96.66       96.55       96.44       96.32       96.19       96.07       95.94       95.82    
        95.71       95.62       95.55       95.50       95.48       95.49       95.53       95.61       95.72       95.85    
        96.00       96.17       96.35       96.53       96.72       96.91       97.09       97.28       97.46       97.63    
        97.80       97.96       98.12       98.28       98.44       98.61       98.79       98.98       99.22       99.53    
        100.0    
  31    97.12       97.11       97.09       97.06       97.03       96.98       96.92       96.86       96.78       96.70    
        96.60       96.50       96.39       96.27       96.14       96.01       95.87       95.73       95.60       95.47    
        95.35       95.24       95.15       95.08       95.04       95.03       95.05       95.09       95.17       95.26    
        95.37       95.50       95.64       95.78       95.92       96.06       96.20       96.33       96.46       96.57    
        96.68       96.78       96.87       96.96       97.03       97.09       97.14       97.19       97.22       97.25    
        97.26       97.27       97.26       97.25       97.23       97.20       97.16       97.11       97.05       96.98    
        96.90       96.81       96.72       96.62       96.51       96.40       96.28       96.16       96.05       95.94    
        95.84       95.75       95.69       95.64       95.63       95.64       95.68       95.76       95.86       95.98    
        96.12       96.28       96.45       96.63       96.80       96.98       97.16       97.34       97.51       97.68    
        97.84       98.00       98.16       98.32       98.47       98.63       98.81       99.00       99.23       99.54    
        100.0    
  32    97.16       97.15       97.13       97.10       97.06       97.02       96.97       96.90       96.83       96.75    
        96.66       96.56       96.45       96.34       96.22       96.10       95.97       95.84       95.72       95.60    
        95.49       95.39       95.31       95.25       95.21       95.20       95.22       95.26       95.33       95.41    
        95.51       95.63       95.76       95.89       96.02       96.15       96.28       96.41       96.53       96.64    
        96.74       96.84       96.93       97.00       97.07       97.13       97.18       97.23       97.26       97.28    
        97.30       97.30       97.30       97.29       97.27       97.24       97.20       97.15       97.10       97.03    
        96.96       96.88       96.79       96.70       96.59       96.49       96.38       96.27       96.17       96.07    
        95.98       95.90       95.84       95.81       95.80       95.81       95.85       95.92       96.01       96.13    
        96.26       96.41       96.57       96.73       96.90       97.07       97.24       97.41       97.58       97.74    
        97.90       98.05       98.20       98.35       98.51       98.66       98.83       99.02       99.25       99.55    
        100.0    
  33    97.20       97.19       97.17       97.14       97.11       97.07       97.02       96.96       96.89       96.81    
        96.73       96.63       96.53       96.43       96.32       96.20       96.08       95.97       95.85       95.74    
        95.64       95.55       95.48       95.43       95.39       95.39       95.40       95.44       95.50       95.58    
        95.67       95.78       95.89       96.01       96.13       96.26       96.38       96.49       96.61       96.71    
        96.81       96.90       96.98       97.06       97.12       97.18       97.23       97.27       97.30       97.33    
        97.34       97.35       97.35       97.34       97.32       97.29       97.25       97.21       97.16       97.10    
        97.03       96.95       96.87       96.78       96.69       96.59       96.49       96.40       96.30       96.21    
        96.13       96.07       96.02       95.99       95.98       95.99       96.03       96.10       96.18       96.29    
        96.41       96.55       96.70       96.85       97.01       97.17       97.33       97.49       97.65       97.80    
        97.95       98.10       98.25       98.40       98.54       98.70       98.86       99.05       99.27       99.56    
        100.0    
  34    97.24       97.24       97.22       97.19       97.16       97.12       97.07       97.02       96.95       96.88    
        96.80       96.71       96.62       96.52       96.42       96.31       96.21       96.10       95.99       95.90    
        95.80       95.73       95.66       95.61       95.58       95.58       95.59       95.62       95.68       95.75    
        95.83       95.93       96.03       96.14       96.26       96.37       96.48       96.59       96.69       96.79    
        96.89       96.97       97.05       97.12       97.18       97.24       97.28       97.32       97.35       97.38    
        97.39       97.40       97.40       97.39       97.37       97.35       97.31       97.27       97.22       97.17    
        97.10       97.03       96.96       96.88       96.79       96.70       96.62       96.53       96.44       96.37    
        96.30       96.24       96.20       96.17       96.17       96.18       96.22       96.28       96.36       96.46    
        96.57       96.70       96.84       96.98       97.13       97.28       97.43       97.58       97.73       97.88    
        98.02       98.16       98.30       98.44       98.59       98.73       98.89       99.07       99.29       99.57    
        100.0    
  35    97.30       97.29       97.27       97.25       97.22       97.18       97.14       97.08       97.02       96.95    
        96.88       96.80       96.71       96.62       96.53       96.43       96.33       96.24       96.14       96.05    
        95.97       95.90       95.85       95.80       95.78       95.77       95.78       95.82       95.86       95.93    
        96.00       96.09       96.18       96.28       96.39       96.49       96.59       96.69       96.79       96.88    
        96.97       97.05       97.12       97.19       97.25       97.30       97.34       97.38       97.41       97.43    
        97.45       97.45       97.45       97.45       97.43       97.41       97.38       97.34       97.29       97.24    
        97.18       97.12       97.05       96.98       96.90       96.82       96.74       96.67       96.59       96.52    
        96.46       96.41       96.38       96.36       96.36       96.38       96.41       96.47       96.54       96.63    
        96.74       96.86       96.98       97.11       97.25       97.39       97.53       97.67       97.81       97.95    
        98.09       98.22       98.36       98.49       98.63       98.77       98.93       99.10       99.31       99.58    
        100.0    
  36    97.35       97.35       97.33       97.31       97.28       97.25       97.20       97.15       97.10       97.03    
        96.97       96.89       96.81       96.73       96.64       96.56       96.47       96.38       96.30       96.22    
        96.14       96.08       96.03       96.00       95.97       95.97       95.98       96.01       96.05       96.11    
        96.17       96.25       96.34       96.43       96.52       96.61       96.71       96.80       96.89       96.97    
        97.05       97.13       97.20       97.26       97.32       97.37       97.41       97.44       97.47       97.49    
        97.51       97.51       97.51       97.51       97.49       97.47       97.45       97.41       97.37       97.32    
        97.27       97.21       97.15       97.09       97.02       96.95       96.88       96.81       96.74       96.68    
        96.63       96.59       96.56       96.55       96.55       96.57       96.61       96.66       96.73       96.81    
        96.91       97.01       97.13       97.25       97.38       97.51       97.64       97.77       97.90       98.03    
        98.16       98.29       98.42       98.55       98.68       98.82       98.96       99.13       99.33       99.60    
        100.0    
  37    97.42       97.41       97.40       97.38       97.35       97.32       97.28       97.23       97.18       97.12    
        97.06       96.99       96.92       96.84       96.76       96.68       96.60       96.53       96.45       96.38    
        96.32       96.26       96.22       96.19       96.17       96.16       96.17       96.20       96.24       96.29    
        96.35       96.41       96.49       96.57       96.66       96.74       96.83       96.91       96.99       97.07    
        97.15       97.22       97.28       97.34       97.39       97.44       97.48       97.51       97.54       97.56    
        97.57       97.58       97.58       97.57       97.56       97.54       97.52       97.49       97.45       97.41    
        97.36       97.31       97.25       97.20       97.14       97.07       97.01       96.95       96.90       96.85    
        96.80       96.77       96.75       96.74       96.74       96.76       96.79       96.84       96.91       96.98    
        97.07       97.17       97.28       97.39       97.51       97.63       97.75       97.87       97.99       98.12    
        98.24       98.36       98.48       98.60       98.73       98.86       99.00       99.16       99.36       99.61    
        100.0    
  38    97.48       97.48       97.46       97.45       97.42       97.39       97.35       97.31       97.26       97.21    
        97.15       97.09       97.02       96.95       96.88       96.81       96.74       96.67       96.60       96.54    
        96.49       96.44       96.40       96.37       96.36       96.35       96.36       96.39       96.42       96.46    
        96.52       96.58       96.65       96.72       96.79       96.87       96.95       97.03       97.10       97.17    
        97.24       97.31       97.36       97.42       97.47       97.51       97.55       97.58       97.61       97.63    
        97.64       97.65       97.65       97.64       97.63       97.62       97.60       97.57       97.54       97.50    
        97.46       97.41       97.36       97.31       97.26       97.20       97.15       97.10       97.05       97.01    
        96.97       96.94       96.93       96.92       96.93       96.95       96.98       97.03       97.08       97.16    
        97.24       97.33       97.42       97.53       97.63       97.75       97.86       97.97       98.09       98.20    
        98.32       98.43       98.55       98.66       98.78       98.91       99.04       99.20       99.38       99.63    
        100.0    
  39    97.55       97.55       97.54       97.52       97.49       97.47       97.43       97.39       97.35       97.30    
        97.25       97.19       97.13       97.07       97.01       96.94       96.88       96.82       96.76       96.70    
        96.65       96.61       96.58       96.56       96.54       96.54       96.55       96.57       96.60       96.64    
        96.68       96.74       96.80       96.86       96.93       97.00       97.07       97.14       97.21       97.28    
        97.34       97.40       97.45       97.50       97.55       97.59       97.63       97.66       97.68       97.70    
        97.71       97.72       97.72       97.72       97.71       97.70       97.68       97.65       97.62       97.59    
        97.55       97.51       97.47       97.42       97.38       97.33       97.28       97.24       97.20       97.16    
        97.14       97.11       97.10       97.10       97.11       97.13       97.16       97.20       97.26       97.32    
        97.40       97.48       97.57       97.66       97.76       97.87       97.97       98.08       98.18       98.29    
        98.40       98.51       98.61       98.72       98.84       98.96       99.08       99.23       99.41       99.64    
        100.0    
  40    97.63       97.62       97.61       97.59       97.57       97.55       97.51       97.48       97.44       97.40    
        97.35       97.30       97.24       97.19       97.13       97.07       97.02       96.96       96.91       96.86    
        96.82       96.78       96.75       96.73       96.72       96.72       96.73       96.74       96.77       96.81    
        96.85       96.90       96.95       97.01       97.07       97.13       97.20       97.26       97.32       97.38    
        97.44       97.49       97.54       97.59       97.63       97.67       97.70       97.73       97.76       97.77    
        97.79       97.79       97.80       97.79       97.79       97.78       97.76       97.74       97.71       97.68    
        97.65       97.62       97.58       97.54       97.50       97.46       97.42       97.38       97.35       97.32    
        97.30       97.28       97.27       97.27       97.28       97.30       97.33       97.37       97.42       97.48    
        97.55       97.63       97.71       97.80       97.89       97.98       98.08       98.18       98.28       98.38    
        98.48       98.58       98.68       98.79       98.89       99.00       99.13       99.27       99.44       99.66    
        100.0    
  41    97.70       97.70       97.69       97.67       97.65       97.63       97.60       97.57       97.53       97.49    
        97.45       97.40       97.35       97.30       97.25       97.20       97.15       97.10       97.06       97.01    
        96.98       96.95       96.92       96.90       96.89       96.89       96.90       96.92       96.94       96.97    
        97.01       97.05       97.10       97.15       97.21       97.26       97.32       97.38       97.43       97.49    
        97.54       97.59       97.64       97.68       97.72       97.75       97.78       97.81       97.83       97.85    
        97.86       97.87       97.87       97.87       97.87       97.86       97.84       97.83       97.80       97.78    
        97.75       97.72       97.69       97.65       97.62       97.58       97.55       97.52       97.49       97.47    
        97.45       97.44       97.43       97.44       97.45       97.47       97.50       97.54       97.58       97.64    
        97.70       97.77       97.85       97.93       98.01       98.10       98.19       98.28       98.37       98.46    
        98.56       98.65       98.75       98.85       98.95       99.05       99.17       99.30       99.46       99.68    
        100.0    
  42    97.78       97.77       97.76       97.75       97.73       97.71       97.69       97.66       97.62       97.59    
        97.55       97.51       97.46       97.42       97.37       97.33       97.28       97.24       97.20       97.16    
        97.13       97.10       97.08       97.07       97.06       97.06       97.07       97.08       97.10       97.13    
        97.16       97.20       97.24       97.29       97.34       97.39       97.44       97.49       97.54       97.59    
        97.64       97.69       97.73       97.77       97.81       97.84       97.87       97.89       97.91       97.93    
        97.94       97.95       97.95       97.95       97.95       97.94       97.93       97.91       97.90       97.87    
        97.85       97.82       97.80       97.77       97.74       97.71       97.68       97.66       97.63       97.61    
        97.60       97.59       97.59       97.60       97.61       97.63       97.66       97.69       97.74       97.79    
        97.85       97.91       97.98       98.05       98.13       98.21       98.29       98.38       98.46       98.55    
        98.64       98.73       98.82       98.91       99.00       99.10       99.21       99.34       99.49       99.69    
        100.0    
  43    97.86       97.85       97.84       97.83       97.82       97.80       97.77       97.75       97.72       97.68    
        97.65       97.61       97.57       97.53       97.49       97.45       97.41       97.38       97.34       97.31    
        97.28       97.26       97.24       97.23       97.22       97.22       97.23       97.24       97.26       97.28    
        97.31       97.34       97.38       97.42       97.47       97.51       97.56       97.61       97.65       97.70    
        97.74       97.78       97.82       97.86       97.89       97.92       97.95       97.97       97.99       98.01    
        98.02       98.03       98.03       98.04       98.03       98.03       98.02       98.00       97.99       97.97    
        97.95       97.93       97.90       97.88       97.85       97.83       97.81       97.79       97.77       97.76    
        97.75       97.74       97.74       97.75       97.76       97.78       97.81       97.84       97.88       97.93    
        97.99       98.04       98.11       98.18       98.25       98.32       98.40       98.48       98.56       98.64    
        98.72       98.80       98.88       98.97       99.06       99.15       99.26       99.38       99.52       99.71    
        100.0    
  44    97.94       97.93       97.92       97.91       97.90       97.88       97.86       97.84       97.81       97.78    
        97.75       97.72       97.68       97.65       97.61       97.57       97.54       97.51       97.48       97.45    
        97.42       97.40       97.39       97.38       97.37       97.37       97.38       97.39       97.41       97.43    
        97.45       97.48       97.52       97.56       97.60       97.64       97.68       97.72       97.76       97.80    
        97.84       97.88       97.92       97.95       97.98       98.01       98.03       98.06       98.08       98.09    
        98.10       98.11       98.12       98.12       98.12       98.11       98.10       98.09       98.08       98.06    
        98.05       98.03       98.01       97.99       97.97       97.95       97.93       97.91       97.90       97.89    
        97.88       97.88       97.88       97.89       97.91       97.93       97.95       97.99       98.02       98.07    
        98.12       98.17       98.23       98.29       98.36       98.43       98.50       98.57       98.65       98.72    
        98.80       98.87       98.95       99.03       99.12       99.20       99.30       99.41       99.55       99.73    
        100.0    
  45    98.02       98.01       98.01       98.00       97.98       97.97       97.95       97.93       97.90       97.88    
        97.85       97.82       97.79       97.76       97.73       97.69       97.66       97.63       97.61       97.58    
        97.56       97.54       97.53       97.52       97.52       97.52       97.52       97.53       97.55       97.57    
        97.59       97.62       97.65       97.68       97.72       97.76       97.79       97.83       97.87       97.91    
        97.94       97.98       98.01       98.04       98.07       98.10       98.12       98.14       98.16       98.17    
        98.18       98.19       98.20       98.20       98.20       98.20       98.19       98.18       98.17       98.16    
        98.15       98.13       98.11       98.10       98.08       98.07       98.05       98.04       98.03       98.02    
        98.02       98.02       98.02       98.03       98.05       98.07       98.09       98.12       98.16       98.20    
        98.25       98.30       98.35       98.41       98.47       98.53       98.60       98.66       98.73       98.80    
        98.87       98.94       99.02       99.09       99.17       99.25       99.34       99.45       99.58       99.75    
        100.0    
  46    98.10       98.09       98.09       98.08       98.07       98.05       98.04       98.02       98.00       97.97    
        97.95       97.92       97.89       97.87       97.84       97.81       97.78       97.76       97.73       97.71    
        97.70       97.68       97.67       97.66       97.66       97.66       97.66       97.67       97.69       97.70    
        97.73       97.75       97.78       97.81       97.84       97.87       97.91       97.94       97.97       98.01    
        98.04       98.07       98.10       98.13       98.16       98.18       98.20       98.22       98.24       98.25    
        98.27       98.27       98.28       98.28       98.28       98.28       98.28       98.27       98.26       98.25    
        98.24       98.23       98.22       98.20       98.19       98.18       98.17       98.16       98.15       98.15    
        98.14       98.15       98.15       98.16       98.18       98.20       98.22       98.25       98.29       98.32    
        98.37       98.41       98.46       98.52       98.57       98.63       98.69       98.75       98.82       98.88    
        98.95       99.01       99.08       99.15       99.22       99.30       99.39       99.48       99.60       99.76    
        100.0    
  47    98.18       98.18       98.17       98.16       98.15       98.14       98.12       98.11       98.09       98.07    
        98.04       98.02       98.00       97.97       97.95       97.92       97.90       97.88       97.86       97.84    
        97.82       97.81       97.80       97.79       97.79       97.79       97.80       97.81       97.82       97.83    
        97.85       97.88       97.90       97.93       97.96       97.98       98.02       98.05       98.08       98.11    
        98.14       98.17       98.20       98.22       98.25       98.27       98.29       98.31       98.32       98.34    
        98.35       98.36       98.36       98.37       98.37       98.37       98.36       98.36       98.35       98.34    
        98.34       98.33       98.32       98.31       98.30       98.29       98.28       98.27       98.27       98.26    
        98.27       98.27       98.28       98.29       98.30       98.32       98.35       98.37       98.41       98.44    
        98.48       98.53       98.57       98.62       98.67       98.73       98.78       98.84       98.90       98.96    
        99.02       99.08       99.14       99.21       99.28       99.35       99.43       99.52       99.63       99.78    
        100.0    
  48    98.26       98.26       98.25       98.24       98.23       98.22       98.21       98.19       98.18       98.16    
        98.14       98.12       98.10       98.08       98.05       98.03       98.01       97.99       97.98       97.96    
        97.95       97.93       97.93       97.92       97.92       97.92       97.93       97.93       97.94       97.96    
        97.98       98.00       98.02       98.04       98.07       98.09       98.12       98.15       98.18       98.21    
        98.23       98.26       98.29       98.31       98.33       98.35       98.37       98.39       98.40       98.42    
        98.43       98.44       98.44       98.45       98.45       98.45       98.45       98.45       98.44       98.44    
        98.43       98.42       98.41       98.41       98.40       98.39       98.39       98.38       98.38       98.38    
        98.38       98.39       98.40       98.41       98.42       98.44       98.46       98.49       98.52       98.55    
        98.59       98.63       98.68       98.72       98.77       98.82       98.87       98.92       98.98       99.03    
        99.09       99.15       99.21       99.27       99.33       99.40       99.47       99.55       99.66       99.79    
        100.0    
  49    98.34       98.34       98.33       98.33       98.32       98.31       98.30       98.28       98.27       98.25    
        98.23       98.21       98.20       98.18       98.16       98.14       98.12       98.10       98.09       98.08    
        98.06       98.05       98.05       98.04       98.04       98.04       98.05       98.06       98.07       98.08    
        98.09       98.11       98.13       98.15       98.18       98.20       98.23       98.25       98.28       98.30    
        98.33       98.35       98.37       98.40       98.42       98.44       98.46       98.47       98.49       98.50    
        98.51       98.52       98.52       98.53       98.53       98.53       98.53       98.53       98.53       98.52    
        98.52       98.51       98.51       98.50       98.50       98.49       98.49       98.49       98.49       98.49    
        98.49       98.50       98.51       98.52       98.54       98.55       98.58       98.60       98.63       98.66    
        98.70       98.73       98.77       98.82       98.86       98.91       98.95       99.00       99.05       99.10    
        99.16       99.21       99.26       99.32       99.38       99.44       99.51       99.59       99.68       99.81    
        100.0    
  50    98.42       98.42       98.41       98.41       98.40       98.39       98.38       98.37       98.35       98.34    
        98.32       98.31       98.29       98.27       98.26       98.24       98.23       98.21       98.20       98.19    
        98.18       98.17       98.16       98.16       98.16       98.16       98.16       98.17       98.18       98.19    
        98.21       98.22       98.24       98.26       98.28       98.30       98.33       98.35       98.37       98.40    
        98.42       98.44       98.46       98.48       98.50       98.52       98.54       98.55       98.57       98.58    
        98.59       98.60       98.60       98.61       98.61       98.61       98.61       98.61       98.61       98.61    
        98.61       98.60       98.60       98.60       98.59       98.59       98.59       98.59       98.59       98.59    
        98.60       98.61       98.62       98.63       98.64       98.66       98.68       98.71       98.73       98.76    
        98.80       98.83       98.87       98.91       98.95       98.99       99.04       99.08       99.13       99.17    
        99.22       99.27       99.32       99.37       99.43       99.49       99.55       99.62       99.71       99.83    
        100.0    
  51    98.50       98.49       98.49       98.49       98.48       98.47       98.46       98.45       98.44       98.43    
        98.41       98.40       98.38       98.37       98.35       98.34       98.33       98.31       98.30       98.29    
        98.28       98.28       98.27       98.27       98.27       98.27       98.28       98.28       98.29       98.30    
        98.31       98.33       98.35       98.36       98.38       98.40       98.42       98.44       98.47       98.49    
        98.51       98.53       98.55       98.57       98.58       98.60       98.62       98.63       98.64       98.66    
        98.67       98.67       98.68       98.69       98.69       98.69       98.70       98.70       98.70       98.70    
        98.69       98.69       98.69       98.69       98.69       98.69       98.69       98.69       98.69       98.69    
        98.70       98.71       98.72       98.73       98.75       98.76       98.78       98.81       98.83       98.86    
        98.89       98.92       98.96       98.99       99.03       99.07       99.11       99.15       99.20       99.24    
        99.29       99.33       99.38       99.43       99.48       99.53       99.59       99.65       99.73       99.84    
        100.0    
  52    98.57       98.57       98.57       98.56       98.56       98.55       98.54       98.53       98.52       98.51    
        98.50       98.49       98.47       98.46       98.45       98.44       98.42       98.41       98.40       98.40    
        98.39       98.38       98.38       98.38       98.38       98.38       98.38       98.39       98.40       98.41    
        98.42       98.43       98.45       98.46       98.48       98.50       98.52       98.54       98.56       98.57    
        98.59       98.61       98.63       98.65       98.67       98.68       98.70       98.71       98.72       98.73    
        98.74       98.75       98.76       98.76       98.77       98.77       98.77       98.78       98.78       98.78    
        98.78       98.78       98.78       98.78       98.78       98.78       98.78       98.78       98.78       98.79    
        98.80       98.80       98.82       98.83       98.84       98.86       98.88       98.90       98.93       98.95    
        98.98       99.01       99.04       99.08       99.11       99.15       99.19       99.23       99.27       99.31    
        99.35       99.39       99.43       99.48       99.52       99.57       99.62       99.68       99.76       99.85    
        100.0    
  53    98.65       98.65       98.65       98.64       98.64       98.63       98.62       98.61       98.60       98.59    
        98.58       98.57       98.56       98.55       98.54       98.53       98.52       98.51       98.50       98.49    
        98.49       98.48       98.48       98.48       98.48       98.48       98.48       98.49       98.50       98.51    
        98.52       98.53       98.54       98.56       98.57       98.59       98.61       98.62       98.64       98.66    
        98.68       98.70       98.71       98.73       98.74       98.76       98.77       98.79       98.80       98.81    
        98.82       98.83       98.83       98.84       98.84       98.85       98.85       98.85       98.86       98.86    
        98.86       98.86       98.86       98.86       98.86       98.86       98.87       98.87       98.87       98.88    
        98.89       98.90       98.91       98.92       98.94       98.95       98.97       98.99       99.02       99.04    
        99.07       99.09       99.12       99.16       99.19       99.22       99.26       99.29       99.33       99.37    
        99.40       99.44       99.48       99.52       99.57       99.61       99.66       99.71       99.78       99.87    
        100.0    
  54    98.72       98.72       98.72       98.72       98.71       98.71       98.70       98.69       98.68       98.68    
        98.67       98.66       98.65       98.64       98.63       98.62       98.61       98.60       98.59       98.59    
        98.58       98.58       98.58       98.58       98.58       98.58       98.58       98.59       98.59       98.60    
        98.61       98.62       98.64       98.65       98.66       98.68       98.69       98.71       98.73       98.74    
        98.76       98.78       98.79       98.81       98.82       98.83       98.85       98.86       98.87       98.88    
        98.89       98.90       98.91       98.91       98.92       98.92       98.93       98.93       98.93       98.93    
        98.94       98.94       98.94       98.94       98.94       98.95       98.95       98.96       98.96       98.97    
        98.98       98.98       99.00       99.01       99.02       99.04       99.06       99.08       99.10       99.12    
        99.15       99.17       99.20       99.23       99.26       99.29       99.33       99.36       99.39       99.43    
        99.46       99.50       99.53       99.57       99.61       99.65       99.69       99.74       99.80       99.88    
        100.0    
  55    98.80       98.79       98.79       98.79       98.79       98.78       98.78       98.77       98.76       98.75    
        98.75       98.74       98.73       98.72       98.71       98.70       98.70       98.69       98.68       98.68    
        98.67       98.67       98.67       98.67       98.67       98.67       98.68       98.68       98.69       98.69    
        98.70       98.71       98.73       98.74       98.75       98.76       98.78       98.79       98.81       98.82    
        98.84       98.85       98.87       98.88       98.90       98.91       98.92       98.93       98.94       98.95    
        98.96       98.97       98.98       98.98       98.99       98.99       99.00       99.00       99.01       99.01    
        99.01       99.01       99.02       99.02       99.02       99.03       99.03       99.04       99.04       99.05    
        99.06       99.07       99.08       99.09       99.11       99.12       99.14       99.16       99.18       99.20    
        99.22       99.25       99.28       99.30       99.33       99.36       99.39       99.42       99.45       99.48    
        99.51       99.55       99.58       99.61       99.65       99.69       99.73       99.77       99.82       99.90    
        100.0    
  56    98.87       98.87       98.86       98.86       98.86       98.85       98.85       98.84       98.84       98.83    
[...]
        99.70       99.70       99.70       99.71       99.71       99.71       99.72       99.72       99.72       99.73    
        99.73       99.74       99.74       99.74       99.75       99.75       99.75       99.76       99.76       99.77    
        99.77       99.78       99.78       99.78       99.79       99.79       99.80       99.80       99.80       99.81    
        99.81       99.82       99.82       99.83       99.83       99.83       99.84       99.84       99.85       99.85    
        99.85       99.86       99.86       99.86       99.87       99.87       99.87       99.87       99.87       99.88    
        99.88    
  89    99.61       99.61       99.61       99.61       99.61       99.61       99.61       99.61       99.61       99.61    
        99.61       99.61       99.61       99.61       99.61       99.61       99.61       99.61       99.61       99.61    
        99.61       99.62       99.62       99.62       99.62       99.62       99.62       99.62       99.63       99.63    
        99.63       99.63       99.63       99.63       99.64       99.64       99.64       99.64       99.65       99.65    
        99.65       99.65       99.66       99.66       99.66       99.67       99.67       99.67       99.67       99.68    
        99.68       99.68       99.69       99.69       99.69       99.70       99.70       99.70       99.71       99.71    
        99.71       99.72       99.72       99.73       99.73       99.73       99.74       99.74       99.74       99.75    
        99.75       99.76       99.76       99.76       99.77       99.77       99.78       99.78       99.79       99.79    
        99.79       99.80       99.80       99.81       99.81       99.82       99.82       99.82       99.83       99.83    
        99.84       99.84       99.84       99.85       99.85       99.85       99.86       99.86       99.86       99.86    
        99.86    
  90    99.59       99.59       99.59       99.59       99.59       99.59       99.59       99.59       99.59       99.59    
        99.60       99.60       99.60       99.60       99.60       99.60       99.60       99.60       99.60       99.60    
        99.60       99.60       99.60       99.60       99.60       99.61       99.61       99.61       99.61       99.61    
        99.61       99.62       99.62       99.62       99.62       99.62       99.63       99.63       99.63       99.63    
        99.64       99.64       99.64       99.64       99.65       99.65       99.65       99.65       99.66       99.66    
        99.66       99.67       99.67       99.67       99.68       99.68       99.68       99.69       99.69       99.69    
        99.70       99.70       99.70       99.71       99.71       99.71       99.72       99.72       99.73       99.73    
        99.73       99.74       99.74       99.74       99.75       99.75       99.76       99.76       99.77       99.77    
        99.77       99.78       99.78       99.79       99.79       99.79       99.80       99.80       99.81       99.81    
        99.82       99.82       99.82       99.83       99.83       99.83       99.84       99.84       99.84       99.84    
        99.84    
  91    99.58       99.58       99.58       99.58       99.58       99.58       99.58       99.58       99.58       99.58    
        99.58       99.58       99.58       99.58       99.58       99.58       99.58       99.58       99.58       99.58    
        99.58       99.59       99.59       99.59       99.59       99.59       99.59       99.59       99.59       99.60    
        99.60       99.60       99.60       99.60       99.60       99.61       99.61       99.61       99.61       99.62    
        99.62       99.62       99.62       99.63       99.63       99.63       99.63       99.64       99.64       99.64    
        99.64       99.65       99.65       99.65       99.66       99.66       99.66       99.67       99.67       99.67    
        99.68       99.68       99.68       99.69       99.69       99.69       99.70       99.70       99.70       99.71    
        99.71       99.72       99.72       99.72       99.73       99.73       99.74       99.74       99.74       99.75    
        99.75       99.76       99.76       99.76       99.77       99.77       99.78       99.78       99.79       99.79    
        99.80       99.80       99.80       99.81       99.81       99.81       99.82       99.82       99.82       99.82    
        99.82    
  92    99.56       99.56       99.56       99.56       99.56       99.56       99.56       99.56       99.56       99.56    
        99.56       99.56       99.56       99.56       99.56       99.56       99.56       99.57       99.57       99.57    
        99.57       99.57       99.57       99.57       99.57       99.57       99.57       99.58       99.58       99.58    
        99.58       99.58       99.58       99.58       99.59       99.59       99.59       99.59       99.60       99.60    
        99.60       99.60       99.60       99.61       99.61       99.61       99.61       99.62       99.62       99.62    
        99.63       99.63       99.63       99.63       99.64       99.64       99.64       99.65       99.65       99.65    
        99.66       99.66       99.66       99.67       99.67       99.67       99.68       99.68       99.68       99.69    
        99.69       99.69       99.70       99.70       99.70       99.71       99.71       99.72       99.72       99.72    
        99.73       99.73       99.74       99.74       99.75       99.75       99.75       99.76       99.76       99.77    
        99.77       99.78       99.78       99.79       99.79       99.79       99.80       99.80       99.80       99.81    
        99.81    
  93    99.55       99.55       99.55       99.55       99.54       99.54       99.54       99.54       99.54       99.54    
        99.54       99.54       99.55       99.55       99.55       99.55       99.55       99.55       99.55       99.55    
        99.55       99.55       99.55       99.55       99.55       99.55       99.56       99.56       99.56       99.56    
        99.56       99.56       99.56       99.57       99.57       99.57       99.57       99.57       99.58       99.58    
        99.58       99.58       99.58       99.59       99.59       99.59       99.59       99.60       99.60       99.60    
        99.60       99.61       99.61       99.61       99.62       99.62       99.62       99.62       99.63       99.63    
        99.63       99.64       99.64       99.64       99.65       99.65       99.65       99.66       99.66       99.66    
        99.67       99.67       99.67       99.68       99.68       99.69       99.69       99.69       99.70       99.70    
        99.71       99.71       99.71       99.72       99.72       99.73       99.73       99.74       99.74       99.75    
        99.75       99.76       99.76       99.77       99.77       99.77       99.78       99.78       99.78       99.79    
        99.79    
  94    99.53       99.53       99.53       99.53       99.53       99.53       99.53       99.53       99.53       99.53    
        99.53       99.53       99.53       99.53       99.53       99.53       99.53       99.53       99.53       99.53    
        99.53       99.53       99.53       99.53       99.53       99.54       99.54       99.54       99.54       99.54    
        99.54       99.54       99.55       99.55       99.55       99.55       99.55       99.55       99.56       99.56    
        99.56       99.56       99.56       99.57       99.57       99.57       99.57       99.58       99.58       99.58    
        99.58       99.59       99.59       99.59       99.60       99.60       99.60       99.60       99.61       99.61    
        99.61       99.62       99.62       99.62       99.62       99.63       99.63       99.63       99.64       99.64    
        99.64       99.65       99.65       99.66       99.66       99.66       99.67       99.67       99.67       99.68    
        99.68       99.69       99.69       99.69       99.70       99.70       99.71       99.71       99.72       99.72    
        99.73       99.73       99.74       99.74       99.75       99.75       99.76       99.76       99.76       99.77    
        99.77    
  95    99.51       99.51       99.51       99.51       99.51       99.51       99.51       99.51       99.51       99.51    
        99.51       99.51       99.51       99.51       99.51       99.51       99.51       99.51       99.51       99.51    
        99.51       99.51       99.51       99.52       99.52       99.52       99.52       99.52       99.52       99.52    
        99.52       99.53       99.53       99.53       99.53       99.53       99.53       99.54       99.54       99.54    
        99.54       99.54       99.55       99.55       99.55       99.55       99.55       99.56       99.56       99.56    
        99.56       99.57       99.57       99.57       99.57       99.58       99.58       99.58       99.59       99.59    
        99.59       99.59       99.60       99.60       99.60       99.61       99.61       99.61       99.62       99.62    
        99.62       99.63       99.63       99.63       99.64       99.64       99.64       99.65       99.65       99.66    
        99.66       99.66       99.67       99.67       99.68       99.68       99.69       99.69       99.70       99.70    
        99.71       99.71       99.72       99.72       99.73       99.73       99.74       99.74       99.74       99.75    
        99.75    
  96    99.49       99.49       99.49       99.49       99.49       99.49       99.49       99.49       99.49       99.49    
        99.49       99.49       99.49       99.49       99.49       99.49       99.49       99.49       99.49       99.49    
        99.50       99.50       99.50       99.50       99.50       99.50       99.50       99.50       99.50       99.50    
        99.51       99.51       99.51       99.51       99.51       99.51       99.52       99.52       99.52       99.52    
        99.52       99.53       99.53       99.53       99.53       99.53       99.54       99.54       99.54       99.54    
        99.55       99.55       99.55       99.55       99.56       99.56       99.56       99.56       99.57       99.57    
        99.57       99.57       99.58       99.58       99.58       99.59       99.59       99.59       99.60       99.60    
        99.60       99.60       99.61       99.61       99.62       99.62       99.62       99.63       99.63       99.63    
        99.64       99.64       99.65       99.65       99.65       99.66       99.66       99.67       99.67       99.68    
        99.69       99.69       99.70       99.70       99.71       99.71       99.72       99.72       99.73       99.73    
        99.73    
  97    99.48       99.48       99.48       99.48       99.48       99.48       99.48       99.48       99.48       99.48    
        99.48       99.48       99.48       99.48       99.48       99.48       99.48       99.48       99.48       99.48    
        99.48       99.48       99.48       99.48       99.48       99.48       99.48       99.49       99.49       99.49    
        99.49       99.49       99.49       99.49       99.50       99.50       99.50       99.50       99.50       99.50    
        99.51       99.51       99.51       99.51       99.51       99.52       99.52       99.52       99.52       99.53    
        99.53       99.53       99.53       99.53       99.54       99.54       99.54       99.55       99.55       99.55    
        99.55       99.56       99.56       99.56       99.56       99.57       99.57       99.57       99.58       99.58    
        99.58       99.59       99.59       99.59       99.60       99.60       99.60       99.61       99.61       99.61    
        99.62       99.62       99.63       99.63       99.63       99.64       99.64       99.65       99.66       99.66    
        99.67       99.67       99.68       99.68       99.69       99.70       99.70       99.71       99.71       99.71    
        99.71    
  98    99.46       99.46       99.46       99.46       99.46       99.46       99.46       99.46       99.46       99.46    
        99.46       99.46       99.46       99.46       99.46       99.46       99.46       99.46       99.46       99.47    
        99.47       99.47       99.47       99.47       99.47       99.47       99.47       99.47       99.47       99.47    
        99.48       99.48       99.48       99.48       99.48       99.48       99.48       99.49       99.49       99.49    
        99.49       99.49       99.50       99.50       99.50       99.50       99.50       99.51       99.51       99.51    
        99.51       99.51       99.52       99.52       99.52       99.52       99.53       99.53       99.53       99.53    
        99.54       99.54       99.54       99.55       99.55       99.55       99.55       99.56       99.56       99.56    
        99.57       99.57       99.57       99.58       99.58       99.58       99.59       99.59       99.59       99.60    
        99.60       99.60       99.61       99.61       99.62       99.62       99.63       99.63       99.64       99.64    
        99.65       99.66       99.66       99.67       99.67       99.68       99.69       99.69       99.69       99.70    
        99.70    
  99    99.45       99.45       99.45       99.45       99.45       99.45       99.45       99.45       99.45       99.45    
        99.45       99.45       99.45       99.45       99.45       99.45       99.45       99.45       99.45       99.45    
        99.45       99.46       99.46       99.46       99.46       99.46       99.46       99.46       99.46       99.46    
        99.46       99.47       99.47       99.47       99.47       99.47       99.47       99.47       99.48       99.48    
        99.48       99.48       99.48       99.49       99.49       99.49       99.49       99.49       99.50       99.50    
        99.50       99.50       99.51       99.51       99.51       99.51       99.51       99.52       99.52       99.52    
        99.52       99.53       99.53       99.53       99.54       99.54       99.54       99.54       99.55       99.55    
        99.55       99.56       99.56       99.56       99.57       99.57       99.57       99.58       99.58       99.58    
        99.59       99.59       99.60       99.60       99.60       99.61       99.61       99.62       99.63       99.63    
        99.64       99.64       99.65       99.66       99.66       99.67       99.67       99.68       99.68       99.69    
        99.69    
 100    99.45       99.45       99.45       99.45       99.45       99.45       99.45       99.44       99.44       99.44    
        99.44       99.44       99.44       99.44       99.44       99.44       99.45       99.45       99.45       99.45    
        99.45       99.45       99.45       99.45       99.45       99.45       99.45       99.45       99.45       99.46    
        99.46       99.46       99.46       99.46       99.46       99.46       99.47       99.47       99.47       99.47    
        99.47       99.47       99.48       99.48       99.48       99.48       99.48       99.49       99.49       99.49    
        99.49       99.49       99.50       99.50       99.50       99.50       99.51       99.51       99.51       99.51    
        99.52       99.52       99.52       99.52       99.53       99.53       99.53       99.54       99.54       99.54    
        99.54       99.55       99.55       99.55       99.56       99.56       99.56       99.57       99.57       99.57    
        99.58       99.58       99.59       99.59       99.60       99.60       99.61       99.61       99.62       99.62    
        99.63       99.63       99.64       99.65       99.65       99.66       99.67       99.67       99.68       99.68    
        99.68    
 101    99.44       99.44       99.44       99.44       99.44       99.44       99.44       99.44       99.44       99.44    
        99.44       99.44       99.44       99.44       99.44       99.44       99.44       99.44       99.44       99.44    
        99.44       99.44       99.44       99.45       99.45       99.45       99.45       99.45       99.45       99.45    
        99.45       99.45       99.46       99.46       99.46       99.46       99.46       99.46       99.46       99.47    
        99.47       99.47       99.47       99.47       99.48       99.48       99.48       99.48       99.48       99.49    
        99.49       99.49       99.49       99.49       99.50       99.50       99.50       99.50       99.51       99.51    
        99.51       99.51       99.52       99.52       99.52       99.53       99.53       99.53       99.53       99.54    
        99.54       99.54       99.55       99.55       99.55       99.56       99.56       99.56       99.57       99.57    
        99.57       99.58       99.58       99.59       99.59       99.60       99.60       99.61       99.61       99.62    
        99.62       99.63       99.64       99.64       99.65       99.66       99.66       99.67       99.67       99.67    
        99.68    

 HEAD WILL BE SAVED ON UNIT 1016 AT END OF TIME STEP    1, STRESS PERIOD    1


  VOLUME BUDGET FOR ENTIRE MODEL AT END OF TIME STEP    1, STRESS PERIOD   1
  ---------------------------------------------------------------------------------------------------

     CUMULATIVE VOLUME      L**3       RATES FOR THIS TIME STEP      L**3/T          PACKAGE NAME    
     ------------------                 ------------------------                     ----------------

           IN:                                      IN:
           ---                                      ---
              STO-SS =         136.2430                STO-SS =         136.2430     STORAGE                          
              STO-SY =           0.0000                STO-SY =           0.0000     STORAGE                          
                 WEL =           0.0000                   WEL =           0.0000     WEL_0                            
                RCHA =        1521.1294                  RCHA =        1521.1294     RCH                              
                 CHD =         733.4109                   CHD =         733.4109     CHD_0                            

            TOTAL IN =        2390.7833              TOTAL IN =        2390.7833

          OUT:                                     OUT:
          ----                                     ----
              STO-SS =       4.2322E-02                STO-SS =       4.2322E-02     STORAGE                          
              STO-SY =           0.0000                STO-SY =           0.0000     STORAGE                          
                 WEL =        2073.6923                   WEL =        2073.6923     WEL_0                            
                RCHA =           0.0000                  RCHA =           0.0000     RCH                              
                 CHD =         318.7386                   CHD =         318.7386     CHD_0                            

           TOTAL OUT =        2392.4732             TOTAL OUT =        2392.4732

            IN - OUT =          -1.6900              IN - OUT =          -1.6900

 PERCENT DISCREPANCY =          -0.07     PERCENT DISCREPANCY =          -0.07




         TIME SUMMARY AT END OF TIME STEP    1 IN STRESS PERIOD    1
                    SECONDS     MINUTES      HOURS       DAYS        YEARS
                    -----------------------------------------------------------
   TIME STEP LENGTH  86400.      1440.0      24.000      1.0000     2.73785E-03
 STRESS PERIOD TIME  86400.      1440.0      24.000      1.0000     2.73785E-03
         TOTAL TIME  86400.      1440.0      24.000      1.0000     2.73785E-03


end timestep

