                                   MODFLOW 6
                U.S. GEOLOGICAL SURVEY MODULAR HYDROLOGIC MODEL
                          GROUNDWATER FLOW MODEL (GWF)
                            VERSION 6.4.2 06/28/2023

         MODFLOW 6 compiled Jul 12 2023 01:08:19 with GCC version 9.4.0

This software has been approved for release by the U.S. Geological 
Survey (USGS). Although the software has been subjected to rigorous 
review, the USGS reserves the right to update the software as needed 
pursuant to further analysis and review. No warranty, expressed or 
implied, is made by the USGS or the U.S. Government as to the 
functionality of the software and related material nor shall the 
fact of release constitute any such warranty. Furthermore, the 
software is released on condition that neither the USGS nor the U.S. 
Government shall be held liable for any damages resulting from its 
authorized or unauthorized use. Also refer to the USGS Water 
Resources Software User Rights Notice for complete use, copyright, 
and distribution information.


As a work of the United States Government, this USGS product is 
in the public domain within the United States. You can copy, 
modify, distribute, and perform the work, even for commercial 
purposes, all without asking permission. Additionally, USGS 
waives copyright and related rights in the work worldwide 
through CC0 1.0 Universal Public Domain Dedication 
(https://creativecommons.org/publicdomain/zero/1.0/).

The following GNU Lesser General Public License (LGPL) libraries
are used in this USGS product:

    SPARSKIT version 2.0
      ilut, luson, and qsplit 
      (https://www-users.cse.umn.edu/~saad/software/SPARSKIT/)

    RCM - Reverse Cuthill McKee Ordering
      (https://people.math.sc.edu/Burkardt/f_src/rcm/rcm.html)

    BLAS - Basic Linear Algebra Subprograms Level 1
      (https://people.math.sc.edu/Burkardt/f_src/blas1_d/blas1_d.html)

    SPARSEKIT - Sparse Matrix Utility Package
      amux, dperm, dvperm, rperm, and cperm
      (https://people.sc.fsu.edu/~jburkardt/f77_src/sparsekit/sparsekit.html)

The following BSD-3 License libraries are used in this USGS product:

    Modern Fortran DAG Library
      Copyright (c) 2018, Jacob Williams
      All rights reserved.
      (https://github.com/jacobwilliams/daglib)

MODFLOW 6 compiler options: -cpp -I ./obj_mf6 -imultiarch x86_64-linux-gnu -D
__linux__ -mtune=generic -march=x86-64 -auxbase-strip
./obj_mf6/compilerversion.o -O2 -Wtabs -Wline-truncation -Wunused-label
-Wunused-variable -Wpedantic -Wcharacter-truncation -std=f2008 -fbacktrace
-ffpe-summary=overflow -ffpe-trap=overflow,zero,invalid -fall-intrinsics -J
./mod_mf6 -fpre-include=/usr/include/finclude/math-vector-fortran.h

System command used to initiate simulation:
/home/ubuntu/mf6

MODFLOW was compiled using uniform precision.

Real Variables
  KIND: 8
  TINY (smallest non-zero value):    2.225074-308
  HUGE (largest value):    1.797693+308
  PRECISION: 15
  SIZE IN BITS: 64

Integer Variables
  KIND: 4
  HUGE (largest value): 2147483647
  SIZE IN BITS: 32

Long Integer Variables
  KIND: 8
  HUGE (largest value): 9223372036854775807
  SIZE IN BITS: 64

Logical Variables
  KIND: 4
  SIZE IN BITS: 32

 NAMEFILE OPTIONS:
    NEWTON-RAPHSON method enabled for the model.
    NEWTON-RAPHSON UNDER-RELAXATION based on the bottom elevation of the model will be applied to the model.
    FLOWS WILL BE SAVED TO BUDGET FILE SPECIFIED IN OUTPUT CONTROL
 END NAMEFILE OPTIONS:

 DIS -- STRUCTURED GRID DISCRETIZATION PACKAGE, VERSION 2 : 3/27/2014 - INPUT READ FROM MEMPATH: __INPUT__/FLOPY_MODELS_3/DIS                      


 NPF -- NODE PROPERTY FLOW PACKAGE, VERSION 1, 3/30/2015 INPUT READ FROM MEMPATH: __INPUT__/FLOPY_MODELS_3/NPF                      

 Setting Discretization Options
 End Setting Discretization Options

 Setting Discretization Dimensions
    NLAY = 10
    NROW = 101
    NCOL = 101
 End Setting Discretization Dimensions

 Setting Discretization Griddata
    DELR set from input file
    DELC set from input file
    TOP set from input file
    BOTM set from input file
 End Setting Discretization Griddata

 Setting NPF Options
 End Setting NPF Options

 Setting NPF Griddata
    ICELLTYPE set from input file
    K set from input file
    K33 not provided.  Setting K33 = K.
    K22 not provided.  Setting K22 = K.
 End Setting NPF Griddata


 WEL   -- WEL PACKAGE, VERSION 8, 2/22/2014 INPUT READ FROM UNIT 1008
 # File generated by Flopy version 3.4.1 on 07/13/2023 at 05:56:38.

 PROCESSING WEL OPTIONS
 END OF WEL OPTIONS

 PROCESSING WEL DIMENSIONS
    MAXBOUND =       2
 END OF WEL DIMENSIONS

 RCH   -- RCH PACKAGE, VERSION 8, 2/22/2014 INPUT READ FROM UNIT 1009
 # File generated by Flopy version 3.4.1 on 07/13/2023 at 05:56:38.

 PROCESSING RCH OPTIONS
    RECHARGE INPUT WILL BE READ AS ARRAY(S).
 END OF RCHA OPTIONS

 CHD   -- CHD PACKAGE, VERSION 8, 2/22/2014 INPUT READ FROM UNIT 1010
 # File generated by Flopy version 3.4.1 on 07/13/2023 at 05:56:38.

 PROCESSING CHD OPTIONS
 END OF CHD OPTIONS

 PROCESSING CHD DIMENSIONS
    MAXBOUND =     299
 END OF CHD DIMENSIONS

 IC -- INITIAL CONDITIONS PACKAGE, VERSION 8, 3/28/2015 INPUT READ FROM UNIT 1006
 # File generated by Flopy version 3.4.1 on 07/13/2023 at 05:56:37.
 PROCESSING GRIDDATA
 END PROCESSING GRIDDATA

 STO -- STORAGE PACKAGE, VERSION 1, 5/19/2014 INPUT READ FROM UNIT 1005


 # File generated by Flopy version 3.4.1 on 07/13/2023 at 05:56:38.
 PROCESSING STORAGE OPTIONS
 END OF STORAGE OPTIONS
 PROCESSING GRIDDATA

                 ICONVERT = 1

         SPECIFIC STORAGE =  0.1000000E-04

           SPECIFIC YIELD =  0.1500000    
 END PROCESSING GRIDDATA
    BINARY GRID INFORMATION WILL BE WRITTEN TO:
      UNIT NUMBER: 1014
      FILE NAME: FloPy_ModelS_3.dis.grb

 OPENED FloPy_ModelS_3.dis.grb
 FILE TYPE:DATA(BINARY)   UNIT 1014   STATUS:REPLACE             
 FORMAT:UNFORMATTED            ACCESS:STREAM              
 ACTION:READWRITE           

      THE LAST TIME STEP WILL BE PRINTED
      THE LAST TIME STEP WILL BE PRINTED
 # File generated by Flopy version 3.4.1 on 07/13/2023 at 05:56:38.

 PROCESSING OC OPTIONS

    BUDGET INFORMATION WILL BE WRITTEN TO:
      UNIT NUMBER: 1015
      FILE NAME: FloPy_ModelS_3.cbb

 OPENED FloPy_ModelS_3.cbb
 FILE TYPE:DATA(BINARY)   UNIT 1015   STATUS:REPLACE             
 FORMAT:UNFORMATTED            ACCESS:STREAM              
 ACTION:READWRITE           

    HEAD INFORMATION WILL BE WRITTEN TO:
      UNIT NUMBER: 1016
      FILE NAME: FloPy_ModelS_3.hds

 OPENED FloPy_ModelS_3.hds
 FILE TYPE:DATA(BINARY)   UNIT 1016   STATUS:REPLACE             
 FORMAT:UNFORMATTED            ACCESS:STREAM              
 ACTION:READWRITE           

 END OF OC OPTIONS

start timestep kper="1" kstp="1" mode="normal"


 BEGIN READING OUTPUT CONTROL FOR STRESS PERIOD 1
      ALL TIME STEPS WILL BE SAVED
      ALL TIME STEPS WILL BE SAVED
      THE LAST TIME STEP WILL BE PRINTED

 END READING OUTPUT CONTROL FOR STRESS PERIOD 1


 STRESS PERIOD 1 IS TRANSIENT


                 RECHARGE =  0.9601150E-02
 UBDSV1 SAVING           STO-SS ON UNIT   1015 AT TIME STEP      1, STRESS PERIOD      1
 UBDSV1 SAVING           STO-SY ON UNIT   1015 AT TIME STEP      1, STRESS PERIOD      1
 UBDSV1 SAVING     FLOW-JA-FACE ON UNIT   1015 AT TIME STEP      1, STRESS PERIOD      1
 UBDSV06 SAVING              WEL IN MODEL FLOPY_MODELS_3   PACKAGE FLOPY_MODELS_3  CONNECTED TO MODEL FLOPY_MODELS_3   PACKAGE WEL_0            ON UNIT   1015 AT TIME STEP      1, STRESS PERIOD      1
 UBDSV06 SAVING             RCHA IN MODEL FLOPY_MODELS_3   PACKAGE FLOPY_MODELS_3  CONNECTED TO MODEL FLOPY_MODELS_3   PACKAGE RCH              ON UNIT   1015 AT TIME STEP      1, STRESS PERIOD      1
 UBDSV06 SAVING              CHD IN MODEL FLOPY_MODELS_3   PACKAGE FLOPY_MODELS_3  CONNECTED TO MODEL FLOPY_MODELS_3   PACKAGE CHD_0            ON UNIT   1015 AT TIME STEP      1, STRESS PERIOD      1
1
  HEAD IN LAYER   1 AT END OF TIME STEP   1 IN STRESS PERIOD    1
  ---------------------------------------------------------------------------

            1           2           3           4           5           6           7           8           9          10
           11          12          13          14          15          16          17          18          19          20
           21          22          23          24          25          26          27          28          29          30
           31          32          33          34          35          36          37          38          39          40
           41          42          43          44          45          46          47          48          49          50
           51          52          53          54          55          56          57          58          59          60
           61          62          63          64          65          66          67          68          69          70
           71          72          73          74          75          76          77          78          79          80
           81          82          83          84          85          86          87          88          89          90
           91          92          93          94          95          96          97          98          99         100
          101
 ........................................................................................................................
   1    99.41       100.0       100.0       100.0       100.0       100.0       100.0       100.0       100.0       100.0    
        100.0       100.0       100.0       100.0       100.0       100.0       100.0       100.0       100.0       100.0    
        100.0       100.0       100.0       100.0       100.0       100.0       100.0       100.0       100.0       100.0    
        100.0       100.0       100.0       100.0       100.0       100.0       100.0       100.0       100.0       100.0    
        100.0       100.0       100.0       100.0       100.0       100.0       100.0       100.0       100.0       100.0    
        100.0       100.0       100.0       100.0       100.0       100.0       100.0       100.0       100.0       100.0    
        100.0       100.0       100.0       100.0       100.0       100.0       100.0       100.0       100.0       100.0    
        100.0       100.0       100.0       100.0       100.0       100.0       100.0       100.0       100.0       100.0    
        100.0       100.0       100.0       100.0       100.0       100.0       100.0       100.0       100.0       100.0    
        100.0       100.0       100.0       100.0       100.0       100.0       100.0       100.0       100.0       100.0    
        100.0    
   2    99.08       99.24       99.28       99.30       99.30       99.30       99.30       99.29       99.29       99.28    
        99.27       99.26       99.25       99.24       99.23       99.23       99.22       99.21       99.20       99.19    
        99.19       99.18       99.18       99.17       99.17       99.17       99.17       99.18       99.18       99.19    
        99.19       99.20       99.21       99.22       99.23       99.24       99.25       99.26       99.27       99.28    
        99.30       99.31       99.32       99.32       99.33       99.34       99.35       99.35       99.36       99.36    
        99.37       99.37       99.37       99.37       99.37       99.37       99.36       99.36       99.36       99.35    
        99.35       99.34       99.34       99.33       99.33       99.32       99.32       99.31       99.31       99.31    
        99.31       99.31       99.31       99.31       99.32       99.32       99.33       99.34       99.35       99.36    
        99.38       99.39       99.41       99.43       99.44       99.46       99.48       99.50       99.53       99.55    
        99.57       99.59       99.61       99.64       99.66       99.69       99.72       99.75       99.80       99.87    
        100.0    
   3    98.76       98.81       98.83       98.85       98.85       98.85       98.84       98.83       98.82       98.81    
        98.79       98.78       98.76       98.75       98.73       98.72       98.70       98.69       98.67       98.66    
        98.65       98.64       98.63       98.63       98.63       98.63       98.63       98.63       98.64       98.65    
        98.66       98.68       98.69       98.71       98.72       98.74       98.76       98.78       98.80       98.82    
        98.83       98.85       98.87       98.88       98.90       98.91       98.92       98.93       98.94       98.95    
        98.95       98.96       98.96       98.96       98.96       98.95       98.95       98.94       98.94       98.93    
        98.92       98.91       98.90       98.89       98.88       98.88       98.87       98.86       98.86       98.85    
        98.85       98.85       98.85       98.86       98.86       98.87       98.89       98.90       98.92       98.94    
        98.96       98.99       99.02       99.05       99.08       99.11       99.14       99.18       99.21       99.25    
        99.29       99.32       99.36       99.40       99.44       99.49       99.54       99.60       99.68       99.80    
        100.0    
   4    98.49       98.50       98.52       98.52       98.52       98.51       98.51       98.49       98.48       98.46    
        98.44       98.42       98.40       98.38       98.36       98.34       98.32       98.30       98.28       98.27    
        98.25       98.24       98.23       98.22       98.22       98.22       98.22       98.23       98.24       98.25    
        98.27       98.28       98.30       98.33       98.35       98.37       98.40       98.42       98.45       98.47    
        98.49       98.52       98.54       98.56       98.58       98.59       98.61       98.62       98.63       98.64    
        98.65       98.65       98.66       98.66       98.65       98.65       98.64       98.64       98.63       98.62    
        98.61       98.59       98.58       98.57       98.56       98.55       98.53       98.52       98.52       98.51    
        98.51       98.51       98.51       98.52       98.52       98.54       98.55       98.57       98.60       98.62    
        98.65       98.69       98.72       98.76       98.80       98.85       98.89       98.94       98.98       99.03    
        99.08       99.13       99.18       99.23       99.29       99.35       99.41       99.50       99.60       99.75    
        100.0    
   5    98.26       98.26       98.27       98.27       98.26       98.25       98.24       98.22       98.21       98.19    
        98.16       98.14       98.11       98.09       98.06       98.04       98.01       97.99       97.97       97.95    
        97.93       97.91       97.90       97.90       97.89       97.89       97.89       97.90       97.91       97.93    
        97.95       97.97       97.99       98.02       98.05       98.07       98.10       98.13       98.16       98.19    
        98.22       98.25       98.28       98.30       98.32       98.34       98.36       98.38       98.39       98.40    
        98.41       98.41       98.42       98.42       98.41       98.41       98.40       98.39       98.38       98.37    
        98.35       98.34       98.32       98.31       98.29       98.28       98.26       98.25       98.24       98.23    
        98.23       98.23       98.23       98.24       98.25       98.26       98.28       98.30       98.33       98.37    
        98.40       98.44       98.48       98.53       98.58       98.63       98.68       98.74       98.79       98.85    
        98.91       98.97       99.03       99.09       99.16       99.24       99.32       99.42       99.54       99.72    
        100.0    
   6    98.06       98.06       98.06       98.05       98.05       98.03       98.02       98.00       97.98       97.95    
        97.93       97.90       97.87       97.84       97.81       97.78       97.75       97.72       97.69       97.67    
        97.65       97.63       97.62       97.61       97.60       97.60       97.61       97.62       97.63       97.65    
        97.67       97.69       97.72       97.75       97.79       97.82       97.85       97.89       97.92       97.96    
        97.99       98.02       98.05       98.08       98.11       98.13       98.15       98.17       98.19       98.20    
        98.21       98.21       98.21       98.21       98.21       98.20       98.20       98.18       98.17       98.16    
        98.14       98.12       98.10       98.08       98.07       98.05       98.03       98.01       98.00       97.99    
        97.99       97.98       97.98       97.99       98.00       98.02       98.04       98.07       98.10       98.14    
        98.18       98.23       98.28       98.33       98.39       98.44       98.51       98.57       98.63       98.70    
        98.77       98.84       98.91       98.98       99.06       99.14       99.24       99.35       99.49       99.69    
        100.0    
   7    97.88       97.88       97.88       97.87       97.86       97.84       97.82       97.80       97.78       97.75    
        97.72       97.68       97.65       97.62       97.58       97.55       97.51       97.48       97.45       97.42    
        97.40       97.37       97.36       97.35       97.34       97.34       97.35       97.36       97.37       97.39    
        97.42       97.45       97.48       97.51       97.55       97.59       97.63       97.67       97.71       97.75    
        97.79       97.82       97.86       97.89       97.92       97.95       97.97       97.99       98.01       98.02    
        98.03       98.04       98.04       98.04       98.03       98.03       98.02       98.00       97.99       97.97    
        97.95       97.93       97.91       97.88       97.86       97.84       97.82       97.80       97.78       97.77    
        97.76       97.76       97.76       97.76       97.78       97.79       97.82       97.85       97.89       97.93    
        97.97       98.03       98.08       98.14       98.21       98.27       98.34       98.41       98.49       98.56    
        98.64       98.71       98.79       98.88       98.96       99.06       99.17       99.29       99.45       99.66    
        100.0    
   8    97.72       97.72       97.71       97.70       97.69       97.67       97.65       97.62       97.59       97.56    
        97.53       97.49       97.45       97.41       97.37       97.33       97.29       97.25       97.22       97.19    
        97.16       97.13       97.11       97.10       97.09       97.09       97.10       97.11       97.13       97.15    
        97.18       97.21       97.25       97.29       97.33       97.38       97.42       97.47       97.51       97.56    
        97.60       97.64       97.68       97.72       97.75       97.78       97.80       97.83       97.84       97.86    
        97.87       97.88       97.88       97.88       97.87       97.86       97.85       97.84       97.82       97.80    
        97.77       97.75       97.72       97.70       97.67       97.65       97.62       97.60       97.58       97.56    
        97.55       97.54       97.54       97.55       97.56       97.58       97.61       97.64       97.68       97.73    
        97.78       97.84       97.90       97.97       98.04       98.11       98.19       98.27       98.35       98.43    
        98.52       98.60       98.69       98.78       98.88       98.98       99.10       99.24       99.41       99.64    
        100.0    
   9    97.57       97.57       97.56       97.55       97.53       97.51       97.49       97.46       97.42       97.39    
        97.35       97.31       97.26       97.22       97.17       97.13       97.08       97.04       97.00       96.96    
        96.93       96.90       96.88       96.86       96.85       96.85       96.86       96.87       96.89       96.92    
        96.95       96.99       97.03       97.08       97.13       97.18       97.23       97.28       97.33       97.38    
        97.43       97.47       97.52       97.56       97.59       97.62       97.65       97.68       97.70       97.71    
        97.72       97.73       97.73       97.73       97.72       97.71       97.70       97.68       97.66       97.64    
        97.61       97.58       97.55       97.52       97.49       97.46       97.43       97.40       97.38       97.36    
        97.35       97.34       97.34       97.34       97.35       97.37       97.40       97.44       97.48       97.53    
        97.59       97.65       97.72       97.80       97.88       97.96       98.05       98.13       98.22       98.31    
        98.41       98.50       98.60       98.70       98.80       98.91       99.04       99.19       99.37       99.62    
        100.0    
  10    97.43       97.43       97.42       97.41       97.39       97.36       97.33       97.30       97.27       97.22    
        97.18       97.13       97.08       97.03       96.98       96.93       96.88       96.83       96.78       96.74    
        96.70       96.67       96.65       96.63       96.62       96.62       96.62       96.64       96.66       96.69    
        96.73       96.77       96.82       96.87       96.93       96.98       97.04       97.10       97.15       97.21    
        97.26       97.31       97.36       97.40       97.44       97.48       97.51       97.54       97.56       97.58    
        97.59       97.59       97.60       97.59       97.59       97.57       97.56       97.54       97.51       97.49    
        97.46       97.42       97.39       97.35       97.32       97.28       97.25       97.22       97.19       97.16    
        97.14       97.13       97.13       97.13       97.14       97.16       97.19       97.23       97.28       97.34    
        97.40       97.47       97.55       97.63       97.72       97.81       97.90       98.00       98.10       98.20    
        98.30       98.40       98.50       98.61       98.73       98.85       98.98       99.14       99.33       99.60    
        100.0    
  11    97.30       97.30       97.29       97.27       97.25       97.22       97.19       97.16       97.11       97.07    
        97.02       96.97       96.91       96.86       96.80       96.74       96.68       96.63       96.57       96.52    
        96.48       96.44       96.42       96.40       96.38       96.38       96.39       96.41       96.43       96.47    
        96.51       96.56       96.61       96.67       96.73       96.79       96.86       96.92       96.99       97.05    
        97.11       97.16       97.21       97.26       97.30       97.34       97.38       97.41       97.43       97.45    
        97.46       97.47       97.47       97.47       97.46       97.44       97.42       97.40       97.37       97.34    
        97.31       97.27       97.23       97.19       97.15       97.11       97.07       97.03       97.00       96.97    
        96.94       96.93       96.92       96.92       96.93       96.95       96.99       97.03       97.08       97.14    
        97.21       97.29       97.38       97.47       97.56       97.66       97.76       97.87       97.98       98.08    
        98.19       98.30       98.42       98.53       98.65       98.78       98.93       99.09       99.30       99.58    
        100.0    
  12    97.18       97.17       97.16       97.14       97.12       97.09       97.06       97.02       96.97       96.92    
        96.87       96.81       96.75       96.68       96.62       96.55       96.49       96.42       96.36       96.31    
        96.26       96.22       96.18       96.16       96.15       96.14       96.15       96.17       96.20       96.24    
        96.29       96.34       96.40       96.47       96.54       96.61       96.68       96.75       96.82       96.89    
        96.95       97.02       97.07       97.13       97.17       97.21       97.25       97.28       97.31       97.33    
        97.34       97.35       97.35       97.34       97.33       97.32       97.30       97.27       97.24       97.21    
        97.17       97.12       97.08       97.03       96.98       96.94       96.89       96.85       96.81       96.77    
        96.74       96.72       96.71       96.71       96.72       96.74       96.77       96.82       96.88       96.95    
        97.02       97.11       97.20       97.30       97.41       97.52       97.63       97.74       97.86       97.97    
        98.09       98.21       98.33       98.45       98.58       98.72       98.87       99.05       99.27       99.56    
        100.0    
  13    97.06       97.06       97.04       97.02       97.00       96.97       96.93       96.88       96.83       96.78    
        96.72       96.65       96.59       96.52       96.44       96.37       96.30       96.23       96.16       96.09    
        96.04       95.99       95.95       95.92       95.91       95.91       95.91       95.94       95.97       96.01    
        96.07       96.13       96.20       96.27       96.35       96.43       96.51       96.59       96.66       96.74    
        96.81       96.88       96.94       97.00       97.05       97.09       97.13       97.16       97.19       97.21    
        97.23       97.23       97.23       97.23       97.22       97.20       97.18       97.15       97.11       97.07    
        97.03       96.98       96.93       96.88       96.82       96.77       96.71       96.66       96.61       96.57    
        96.54       96.51       96.50       96.49       96.50       96.52       96.56       96.61       96.67       96.74    
        96.83       96.92       97.03       97.14       97.25       97.37       97.49       97.61       97.74       97.86    
        97.99       98.12       98.25       98.38       98.52       98.66       98.82       99.01       99.23       99.54    
        100.0    
  14    96.95       96.95       96.93       96.91       96.88       96.85       96.81       96.76       96.70       96.64    
        96.58       96.51       96.43       96.35       96.27       96.19       96.11       96.03       95.95       95.88    
        95.82       95.76       95.72       95.69       95.67       95.66       95.67       95.70       95.73       95.79    
        95.85       95.92       95.99       96.08       96.16       96.25       96.34       96.43       96.51       96.59    
        96.67       96.74       96.81       96.87       96.93       96.98       97.02       97.05       97.08       97.10    
        97.12       97.13       97.13       97.12       97.11       97.09       97.06       97.03       96.99       96.95    
        96.90       96.84       96.79       96.73       96.66       96.60       96.54       96.48       96.42       96.37    
        96.33       96.30       96.28       96.27       96.28       96.30       96.34       96.39       96.46       96.54    
        96.63       96.74       96.85       96.97       97.09       97.22       97.35       97.49       97.62       97.76    
        97.89       98.03       98.16       98.30       98.45       98.60       98.77       98.96       99.20       99.52    
        100.0    
  15    96.85       96.84       96.83       96.80       96.77       96.74       96.69       96.64       96.58       96.51    
        96.44       96.36       96.28       96.19       96.10       96.01       95.92       95.83       95.75       95.67    
        95.59       95.53       95.48       95.44       95.42       95.42       95.43       95.46       95.50       95.56    
        95.62       95.70       95.79       95.88       95.98       96.08       96.17       96.27       96.36       96.45    
        96.54       96.61       96.69       96.75       96.81       96.87       96.91       96.95       96.98       97.00    
        97.02       97.03       97.03       97.02       97.00       96.98       96.95       96.92       96.87       96.82    
        96.77       96.71       96.65       96.58       96.51       96.44       96.37       96.30       96.23       96.17    
        96.12       96.09       96.06       96.05       96.05       96.08       96.12       96.17       96.25       96.33    
        96.44       96.55       96.67       96.80       96.94       97.08       97.22       97.36       97.51       97.65    
        97.80       97.94       98.09       98.23       98.39       98.55       98.72       98.93       99.17       99.50    
        100.0    
  16    96.75       96.74       96.73       96.70       96.67       96.63       96.58       96.52       96.46       96.39    
        96.31       96.23       96.14       96.04       95.94       95.84       95.74       95.64       95.54       95.45    
        95.37       95.30       95.24       95.20       95.18       95.17       95.18       95.21       95.26       95.33    
        95.40       95.49       95.59       95.69       95.80       95.90       96.01       96.12       96.22       96.32    
        96.41       96.49       96.57       96.64       96.71       96.76       96.81       96.85       96.88       96.91    
        96.92       96.93       96.93       96.92       96.91       96.88       96.85       96.81       96.76       96.71    
        96.65       96.58       96.51       96.43       96.36       96.28       96.20       96.12       96.04       95.98    
        95.92       95.87       95.84       95.82       95.82       95.85       95.89       95.95       96.03       96.13    
        96.24       96.36       96.50       96.64       96.79       96.94       97.09       97.24       97.40       97.55    
        97.71       97.86       98.01       98.17       98.33       98.50       98.68       98.89       99.14       99.48    
        100.0    
  17    96.66       96.65       96.64       96.61       96.57       96.53       96.48       96.42       96.35       96.27    
        96.19       96.10       96.00       95.89       95.79       95.67       95.56       95.45       95.34       95.24    
        95.15       95.07       95.01       94.96       94.93       94.92       94.94       94.97       95.02       95.10    
        95.18       95.28       95.39       95.50       95.62       95.74       95.86       95.97       96.08       96.19    
        96.29       96.38       96.46       96.54       96.61       96.67       96.72       96.76       96.79       96.82    
        96.83       96.84       96.84       96.83       96.81       96.79       96.75       96.71       96.66       96.60    
        96.53       96.46       96.38       96.30       96.21       96.12       96.03       95.94       95.86       95.78    
        95.71       95.66       95.62       95.59       95.59       95.62       95.66       95.72       95.81       95.92    
        96.04       96.17       96.32       96.48       96.63       96.80       96.96       97.13       97.29       97.46    
        97.62       97.78       97.94       98.10       98.27       98.45       98.64       98.85       99.12       99.47    
        100.0    
  18    96.58       96.57       96.55       96.52       96.49       96.44       96.38       96.32       96.24       96.16    
        96.07       95.97       95.87       95.75       95.64       95.52       95.39       95.27       95.15       95.04    
        94.94       94.85       94.77       94.72       94.68       94.68       94.69       94.73       94.79       94.87    
        94.97       95.08       95.20       95.32       95.45       95.58       95.71       95.83       95.95       96.07    
        96.17       96.27       96.36       96.44       96.51       96.58       96.63       96.68       96.71       96.74    
        96.75       96.76       96.76       96.75       96.73       96.70       96.66       96.62       96.56       96.50    
        96.43       96.35       96.26       96.17       96.07       95.97       95.87       95.77       95.68       95.59    
        95.51       95.44       95.40       95.37       95.36       95.39       95.43       95.50       95.60       95.71    
        95.84       95.99       96.15       96.32       96.49       96.67       96.84       97.02       97.19       97.36    
        97.54       97.70       97.87       98.04       98.22       98.40       98.60       98.82       99.09       99.45    
        100.0    
  19    96.50       96.49       96.47       96.44       96.40       96.36       96.30       96.23       96.15       96.06    
        95.96       95.86       95.75       95.62       95.50       95.37       95.23       95.10       94.97       94.84    
        94.73       94.63       94.54       94.48       94.45       94.44       94.45       94.50       94.56       94.65    
        94.76       94.88       95.01       95.15       95.29       95.43       95.57       95.71       95.83       95.96    
        96.07       96.17       96.27       96.35       96.43       96.49       96.55       96.60       96.64       96.66    
        96.68       96.69       96.69       96.67       96.65       96.62       96.58       96.53       96.47       96.40    
        96.33       96.24       96.15       96.05       95.94       95.83       95.72       95.61       95.50       95.40    
        95.31       95.24       95.18       95.15       95.14       95.16       95.21       95.28       95.39       95.51    
        95.65       95.81       95.99       96.17       96.35       96.54       96.73       96.91       97.10       97.28    
        97.46       97.64       97.81       97.99       98.17       98.36       98.56       98.79       99.07       99.44    
        100.0    
  20    96.43       96.42       96.40       96.37       96.33       96.28       96.22       96.15       96.06       95.97    
        95.87       95.76       95.63       95.51       95.37       95.23       95.08       94.94       94.79       94.66    
        94.53       94.42       94.33       94.26       94.22       94.21       94.22       94.27       94.35       94.45    
        94.57       94.70       94.84       94.99       95.15       95.30       95.45       95.59       95.72       95.85    
        95.97       96.08       96.18       96.27       96.35       96.42       96.48       96.53       96.57       96.60    
        96.61       96.62       96.62       96.61       96.58       96.55       96.51       96.45       96.39       96.32    
        96.24       96.14       96.04       95.94       95.82       95.70       95.58       95.46       95.34       95.23    
        95.13       95.04       94.98       94.94       94.93       94.94       94.99       95.08       95.19       95.32    
        95.48       95.65       95.83       96.03       96.22       96.42       96.62       96.82       97.01       97.20    
        97.39       97.57       97.76       97.94       98.12       98.32       98.53       98.76       99.05       99.43    
        100.0    
  21    96.37       96.36       96.34       96.31       96.27       96.21       96.15       96.07       95.99       95.89    
        95.78       95.66       95.54       95.40       95.25       95.10       94.95       94.79       94.64       94.49    
        94.35       94.23       94.13       94.05       94.01       93.99       94.01       94.07       94.15       94.26    
        94.39       94.53       94.69       94.85       95.01       95.17       95.33       95.48       95.63       95.76    
        95.89       96.00       96.11       96.20       96.28       96.36       96.42       96.47       96.51       96.54    
        96.56       96.56       96.56       96.55       96.52       96.49       96.44       96.39       96.32       96.24    
        96.16       96.06       95.95       95.84       95.71       95.59       95.45       95.32       95.19       95.07    
        94.96       94.86       94.79       94.74       94.73       94.74       94.80       94.88       95.00       95.14    
        95.31       95.50       95.69       95.90       96.11       96.32       96.53       96.73       96.94       97.13    
        97.33       97.52       97.71       97.90       98.09       98.28       98.50       98.74       99.03       99.42    
        100.0    
  22    96.32       96.31       96.29       96.26       96.21       96.16       96.09       96.01       95.92       95.82    
        95.71       95.58       95.45       95.31       95.15       94.99       94.83       94.66       94.50       94.34    
        94.19       94.06       93.95       93.87       93.82       93.80       93.82       93.88       93.97       94.09    
        94.23       94.38       94.55       94.72       94.89       95.07       95.23       95.39       95.54       95.68    
        95.82       95.94       96.04       96.14       96.23       96.30       96.36       96.42       96.46       96.49    
        96.51       96.51       96.51       96.50       96.47       96.44       96.39       96.33       96.26       96.18    
        96.09       95.98       95.87       95.75       95.62       95.48       95.34       95.20       95.06       94.93    
        94.81       94.70       94.62       94.57       94.55       94.56       94.62       94.71       94.83       94.99    
        95.17       95.36       95.57       95.79       96.01       96.23       96.45       96.66       96.87       97.08    
        97.28       97.47       97.67       97.86       98.05       98.26       98.47       98.72       99.02       99.41    
        100.0    
  23    96.28       96.27       96.24       96.21       96.16       96.11       96.04       95.96       95.87       95.76    
        95.65       95.52       95.38       95.23       95.07       94.90       94.73       94.56       94.38       94.22    
        94.06       93.92       93.80       93.71       93.66       93.64       93.66       93.73       93.82       93.95    
        94.09       94.26       94.43       94.62       94.80       94.98       95.15       95.32       95.47       95.62    
        95.76       95.88       95.99       96.09       96.18       96.26       96.32       96.37       96.42       96.45    
        96.47       96.47       96.47       96.46       96.43       96.39       96.34       96.28       96.21       96.13    
        96.03       95.92       95.81       95.68       95.55       95.40       95.25       95.10       94.96       94.81    
        94.68       94.57       94.48       94.42       94.40       94.41       94.47       94.57       94.70       94.86    
        95.05       95.25       95.47       95.70       95.92       96.15       96.38       96.60       96.82       97.03    
        97.23       97.44       97.63       97.83       98.03       98.23       98.45       98.70       99.00       99.40    
        100.0    
  24    96.24       96.23       96.21       96.17       96.13       96.07       96.00       95.92       95.82       95.72    
        95.60       95.47       95.32       95.17       95.01       94.84       94.66       94.48       94.30       94.12    
        93.95       93.81       93.68       93.59       93.53       93.52       93.54       93.61       93.71       93.84    
        93.99       94.16       94.35       94.54       94.72       94.91       95.09       95.26       95.42       95.57    
        95.71       95.84       95.95       96.05       96.14       96.22       96.29       96.34       96.38       96.41    
        96.43       96.44       96.44       96.42       96.40       96.36       96.31       96.25       96.17       96.09    
        95.99       95.88       95.76       95.63       95.49       95.34       95.19       95.03       94.87       94.72    
        94.59       94.47       94.37       94.31       94.28       94.30       94.36       94.46       94.59       94.76    
        94.95       95.17       95.39       95.63       95.86       96.10       96.33       96.56       96.78       96.99    
        97.20       97.41       97.61       97.81       98.01       98.22       98.44       98.69       98.99       99.40    
        100.0    
  25    96.22       96.21       96.18       96.15       96.10       96.04       95.97       95.89       95.79       95.68    
        95.56       95.43       95.29       95.13       94.96       94.79       94.61       94.42       94.24       94.06    
        93.89       93.73       93.61       93.51       93.45       93.43       93.46       93.53       93.63       93.76    
        93.92       94.10       94.29       94.48       94.67       94.86       95.05       95.22       95.38       95.54    
        95.68       95.81       95.92       96.02       96.12       96.19       96.26       96.32       96.36       96.39    
        96.41       96.42       96.42       96.40       96.37       96.33       96.28       96.22       96.15       96.06    
        95.96       95.85       95.73       95.59       95.45       95.30       95.14       94.98       94.82       94.67    
        94.53       94.40       94.30       94.24       94.21       94.23       94.28       94.39       94.53       94.70    
        94.90       95.11       95.35       95.58       95.82       96.06       96.30       96.53       96.75       96.97    
        97.18       97.39       97.59       97.79       98.00       98.21       98.43       98.68       98.99       99.39    
        100.0    
  26    96.20       96.19       96.17       96.13       96.08       96.03       95.95       95.87       95.77       95.67    
        95.54       95.41       95.27       95.11       94.94       94.77       94.58       94.40       94.21       94.03    
        93.86       93.70       93.57       93.48       93.42       93.40       93.42       93.49       93.60       93.73    
        93.89       94.07       94.26       94.46       94.65       94.84       95.03       95.20       95.37       95.52    
        95.66       95.79       95.91       96.01       96.10       96.18       96.25       96.30       96.35       96.38    
        96.40       96.41       96.40       96.39       96.36       96.32       96.27       96.21       96.13       96.04    
        95.95       95.83       95.71       95.58       95.43       95.28       95.12       94.96       94.80       94.65    
        94.50       94.38       94.28       94.21       94.18       94.20       94.26       94.36       94.50       94.67    
        94.87       95.09       95.33       95.57       95.81       96.05       96.29       96.52       96.75       96.96    
        97.18       97.38       97.59       97.79       97.99       98.20       98.43       98.68       98.99       99.39    
        100.0    
  27    96.19       96.18       96.16       96.12       96.08       96.02       95.95       95.86       95.77       95.66    
        95.54       95.41       95.26       95.11       94.94       94.77       94.58       94.40       94.21       94.03    
        93.86       93.71       93.58       93.49       93.43       93.41       93.44       93.50       93.61       93.74    
        93.90       94.08       94.27       94.46       94.65       94.84       95.03       95.20       95.36       95.52    
        95.66       95.79       95.90       96.01       96.10       96.18       96.24       96.30       96.34       96.37    
        96.39       96.40       96.40       96.38       96.36       96.32       96.27       96.20       96.13       96.04    
        95.94       95.83       95.71       95.58       95.44       95.29       95.13       94.97       94.81       94.66    
        94.52       94.39       94.29       94.23       94.20       94.22       94.28       94.38       94.52       94.69    
        94.89       95.11       95.34       95.58       95.82       96.06       96.30       96.53       96.75       96.97    
        97.18       97.39       97.59       97.79       98.00       98.21       98.43       98.68       98.99       99.39    
        100.0    
  28    96.20       96.18       96.16       96.13       96.08       96.02       95.95       95.87       95.78       95.67    
        95.55       95.42       95.28       95.12       94.96       94.79       94.61       94.43       94.25       94.07    
        93.91       93.76       93.64       93.55       93.49       93.47       93.50       93.56       93.66       93.79    
        93.95       94.12       94.30       94.49       94.68       94.87       95.05       95.22       95.38       95.53    
        95.67       95.80       95.91       96.01       96.10       96.18       96.25       96.30       96.35       96.38    
        96.40       96.41       96.40       96.39       96.36       96.32       96.28       96.21       96.14       96.06    
        95.96       95.85       95.73       95.60       95.46       95.31       95.16       95.01       94.85       94.70    
        94.57       94.45       94.35       94.29       94.27       94.28       94.34       94.44       94.58       94.75    
        94.94       95.16       95.38       95.62       95.85       96.09       96.32       96.55       96.77       96.99    
        97.20       97.40       97.60       97.80       98.01       98.21       98.44       98.69       98.99       99.40    
        100.0    
  29    96.21       96.20       96.17       96.14       96.09       96.04       95.97       95.89       95.79       95.69    
        95.57       95.45       95.31       95.16       95.00       94.84       94.66       94.49       94.32       94.15    
        93.99       93.85       93.73       93.64       93.59       93.57       93.60       93.66       93.76       93.88    
        94.03       94.19       94.37       94.55       94.73       94.91       95.09       95.26       95.41       95.56    
        95.69       95.82       95.93       96.03       96.12       96.20       96.26       96.32       96.36       96.39    
        96.41       96.42       96.42       96.40       96.38       96.34       96.29       96.23       96.16       96.08    
        95.99       95.88       95.77       95.64       95.51       95.36       95.22       95.07       94.92       94.78    
        94.65       94.54       94.45       94.39       94.37       94.39       94.45       94.54       94.67       94.84    
        95.03       95.23       95.45       95.68       95.91       96.14       96.37       96.59       96.81       97.02    
        97.23       97.43       97.63       97.82       98.02       98.23       98.45       98.70       99.00       99.40    
        100.0    
  30    96.23       96.22       96.19       96.16       96.12       96.06       95.99       95.92       95.83       95.72    
        95.61       95.49       95.36       95.21       95.06       94.90       94.74       94.57       94.41       94.25    
        94.10       93.97       93.86       93.78       93.73       93.71       93.73       93.79       93.88       94.00    
        94.14       94.30       94.46       94.64       94.81       94.98       95.15       95.31       95.46       95.60    
        95.73       95.85       95.96       96.06       96.15       96.22       96.29       96.34       96.38       96.41    
        96.43       96.44       96.44       96.43       96.40       96.37       96.32       96.27       96.20       96.12    
        96.03       95.93       95.82       95.70       95.57       95.43       95.29       95.15       95.02       94.88    
        94.76       94.66       94.58       94.53       94.51       94.53       94.59       94.68       94.80       94.96    
        95.14       95.34       95.55       95.76       95.99       96.21       96.43       96.65       96.86       97.06    
        97.27       97.46       97.66       97.85       98.05       98.25       98.47       98.72       99.01       99.41    
        100.0    
  31    96.25       96.24       96.22       96.19       96.15       96.09       96.03       95.95       95.87       95.77    
        95.66       95.55       95.42       95.28       95.14       94.99       94.83       94.68       94.52       94.37    
        94.24       94.11       94.01       93.94       93.89       93.88       93.90       93.95       94.04       94.15    
        94.28       94.42       94.58       94.74       94.90       95.07       95.23       95.38       95.52       95.66    
        95.79       95.90       96.01       96.10       96.19       96.26       96.32       96.37       96.42       96.45    
        96.47       96.47       96.47       96.46       96.44       96.41       96.36       96.31       96.24       96.17    
        96.08       95.99       95.88       95.77       95.65       95.52       95.39       95.26       95.13       95.01    
        94.90       94.81       94.74       94.69       94.68       94.70       94.75       94.84       94.96       95.11    
        95.28       95.46       95.66       95.87       96.08       96.29       96.51       96.71       96.92       97.12    
        97.31       97.51       97.70       97.89       98.08       98.28       98.49       98.73       99.03       99.42    
        100.0    
  32    96.29       96.28       96.26       96.23       96.19       96.14       96.07       96.00       95.92       95.83    
        95.72       95.61       95.49       95.36       95.23       95.09       94.94       94.80       94.65       94.52    
        94.39       94.28       94.19       94.12       94.08       94.07       94.09       94.14       94.21       94.31    
        94.43       94.57       94.71       94.86       95.02       95.17       95.32       95.46       95.60       95.73    
        95.85       95.96       96.06       96.15       96.23       96.30       96.37       96.42       96.46       96.49    
        96.50       96.51       96.51       96.50       96.48       96.45       96.41       96.36       96.30       96.23    
        96.15       96.06       95.96       95.85       95.74       95.62       95.50       95.39       95.27       95.16    
        95.06       94.98       94.92       94.88       94.87       94.89       94.94       95.03       95.14       95.28    
        95.44       95.61       95.80       95.99       96.19       96.39       96.60       96.79       96.99       97.18    
        97.37       97.56       97.74       97.93       98.11       98.31       98.52       98.76       99.04       99.43    
        100.0    
  33    96.33       96.32       96.30       96.27       96.24       96.19       96.13       96.06       95.98       95.89    
        95.80       95.69       95.58       95.46       95.33       95.20       95.07       94.93       94.80       94.68    
        94.56       94.46       94.38       94.32       94.29       94.28       94.29       94.34       94.41       94.50    
        94.61       94.73       94.86       95.00       95.14       95.28       95.42       95.56       95.69       95.81    
        95.92       96.03       96.12       96.21       96.29       96.36       96.42       96.46       96.50       96.53    
        96.55       96.56       96.56       96.55       96.53       96.50       96.47       96.42       96.36       96.29    
        96.22       96.14       96.05       95.95       95.85       95.74       95.63       95.52       95.42       95.32    
        95.23       95.16       95.11       95.08       95.07       95.10       95.15       95.23       95.33       95.46    
        95.61       95.77       95.94       96.13       96.31       96.51       96.70       96.89       97.07       97.26    
        97.44       97.62       97.80       97.97       98.16       98.35       98.55       98.78       99.06       99.44    
        100.0    
  34    96.38       96.37       96.36       96.33       96.29       96.24       96.19       96.12       96.05       95.97    
        95.88       95.78       95.67       95.56       95.45       95.32       95.20       95.08       94.96       94.85    
        94.75       94.66       94.58       94.53       94.50       94.49       94.51       94.55       94.61       94.69    
        94.79       94.90       95.02       95.15       95.28       95.41       95.54       95.66       95.78       95.90    
        96.01       96.11       96.20       96.28       96.35       96.42       96.47       96.52       96.56       96.59    
        96.61       96.62       96.62       96.61       96.59       96.56       96.53       96.49       96.43       96.37    
        96.30       96.23       96.14       96.05       95.96       95.86       95.77       95.67       95.58       95.49    
        95.42       95.36       95.31       95.29       95.29       95.31       95.36       95.44       95.53       95.65    
        95.79       95.94       96.10       96.27       96.45       96.63       96.80       96.98       97.16       97.34    
        97.51       97.68       97.85       98.03       98.20       98.39       98.59       98.81       99.09       99.45    
        100.0    
  35    96.44       96.43       96.41       96.39       96.35       96.31       96.26       96.20       96.13       96.05    
        95.97       95.88       95.78       95.67       95.57       95.46       95.35       95.24       95.13       95.03    
        94.94       94.86       94.79       94.75       94.72       94.71       94.73       94.76       94.82       94.89    
        94.98       95.08       95.19       95.30       95.42       95.54       95.66       95.78       95.89       96.00    
        96.10       96.19       96.28       96.35       96.42       96.48       96.54       96.58       96.62       96.65    
        96.67       96.68       96.68       96.67       96.66       96.63       96.60       96.56       96.51       96.46    
        96.39       96.32       96.25       96.17       96.08       96.00       95.91       95.83       95.75       95.67    
        95.61       95.56       95.52       95.50       95.51       95.53       95.58       95.65       95.74       95.85    
        95.97       96.11       96.26       96.42       96.59       96.75       96.92       97.09       97.26       97.42    
        97.59       97.75       97.92       98.08       98.25       98.43       98.63       98.84       99.11       99.47    
        100.0    
  36    96.50       96.50       96.48       96.45       96.42       96.38       96.33       96.28       96.21       96.14    
        96.06       95.98       95.89       95.79       95.70       95.60       95.50       95.40       95.30       95.21    
        95.13       95.06       95.00       94.96       94.94       94.93       94.95       94.98       95.03       95.09    
        95.17       95.26       95.36       95.46       95.57       95.68       95.79       95.90       96.00       96.10    
        96.19       96.28       96.36       96.43       96.50       96.56       96.61       96.65       96.69       96.71    
        96.73       96.74       96.74       96.74       96.73       96.70       96.68       96.64       96.60       96.55    
        96.49       96.43       96.36       96.29       96.21       96.14       96.06       95.99       95.92       95.85    
        95.80       95.76       95.73       95.72       95.72       95.75       95.80       95.86       95.95       96.05    
        96.16       96.29       96.43       96.58       96.73       96.88       97.04       97.20       97.36       97.52    
        97.67       97.83       97.99       98.15       98.31       98.48       98.67       98.88       99.14       99.48    
        100.0    
  37    96.57       96.56       96.55       96.53       96.50       96.46       96.41       96.36       96.30       96.24    
        96.16       96.09       96.00       95.92       95.83       95.74       95.65       95.56       95.47       95.40    
        95.32       95.26       95.21       95.18       95.16       95.15       95.17       95.19       95.24       95.30    
        95.37       95.45       95.53       95.63       95.73       95.83       95.92       96.02       96.12       96.21    
        96.30       96.38       96.45       96.52       96.58       96.64       96.68       96.73       96.76       96.78    
        96.80       96.81       96.82       96.81       96.80       96.78       96.76       96.73       96.69       96.64    
        96.59       96.54       96.48       96.41       96.35       96.28       96.21       96.15       96.09       96.04    
        95.99       95.96       95.94       95.93       95.94       95.97       96.01       96.07       96.15       96.24    
        96.35       96.47       96.60       96.73       96.87       97.02       97.16       97.31       97.46       97.61    
        97.76       97.91       98.06       98.21       98.37       98.53       98.71       98.92       99.16       99.50    
        100.0    
  38    96.65       96.64       96.62       96.60       96.57       96.54       96.50       96.45       96.39       96.33    
        96.27       96.20       96.12       96.05       95.97       95.88       95.80       95.72       95.65       95.58    
        95.52       95.46       95.42       95.39       95.37       95.37       95.38       95.41       95.45       95.50    
        95.56       95.63       95.71       95.79       95.88       95.97       96.06       96.15       96.24       96.32    
        96.40       96.48       96.55       96.61       96.67       96.72       96.77       96.80       96.84       96.86    
        96.88       96.89       96.89       96.89       96.88       96.87       96.84       96.82       96.78       96.74    
        96.70       96.65       96.60       96.54       96.48       96.42       96.37       96.31       96.26       96.22    
        96.18       96.16       96.14       96.14       96.15       96.18       96.22       96.28       96.35       96.44    
        96.54       96.65       96.76       96.89       97.02       97.15       97.29       97.43       97.57       97.71    
        97.85       97.99       98.13       98.28       98.43       98.58       98.76       98.95       99.19       99.51    
        100.0    
  39    96.72       96.72       96.70       96.68       96.66       96.63       96.59       96.54       96.49       96.44    
        96.38       96.31       96.25       96.18       96.10       96.03       95.96       95.89       95.82       95.76    
        95.71       95.66       95.62       95.59       95.58       95.58       95.59       95.61       95.65       95.69    
        95.75       95.81       95.88       95.96       96.04       96.12       96.20       96.28       96.36       96.44    
        96.51       96.58       96.65       96.71       96.76       96.81       96.85       96.89       96.92       96.94    
        96.96       96.97       96.97       96.97       96.97       96.95       96.93       96.91       96.88       96.84    
        96.81       96.76       96.72       96.67       96.62       96.57       96.52       96.48       96.43       96.40    
        96.37       96.35       96.34       96.34       96.36       96.38       96.42       96.48       96.55       96.63    
        96.72       96.82       96.93       97.04       97.16       97.29       97.42       97.54       97.68       97.81    
        97.94       98.07       98.21       98.34       98.49       98.64       98.80       98.99       99.22       99.53    
        100.0    
  40    96.80       96.80       96.79       96.77       96.74       96.71       96.68       96.64       96.59       96.54    
        96.49       96.43       96.37       96.31       96.24       96.18       96.11       96.05       95.99       95.94    
        95.89       95.85       95.82       95.80       95.78       95.78       95.79       95.81       95.84       95.88    
        95.93       95.99       96.05       96.12       96.19       96.27       96.34       96.41       96.49       96.56    
        96.62       96.69       96.75       96.80       96.85       96.90       96.94       96.97       97.00       97.02    
        97.04       97.05       97.06       97.06       97.05       97.04       97.03       97.01       96.98       96.95    
        96.92       96.88       96.84       96.80       96.76       96.71       96.67       96.64       96.60       96.57    
        96.55       96.54       96.53       96.54       96.55       96.58       96.62       96.67       96.74       96.81    
        96.90       96.99       97.09       97.19       97.31       97.42       97.54       97.66       97.78       97.91    
        98.03       98.16       98.28       98.41       98.55       98.69       98.85       99.03       99.25       99.55    
        100.0    
  41    96.89       96.88       96.87       96.86       96.83       96.81       96.77       96.74       96.70       96.65    
        96.60       96.55       96.49       96.44       96.38       96.32       96.27       96.21       96.16       96.11    
        96.07       96.04       96.01       95.99       95.98       95.98       95.99       96.01       96.03       96.07    
        96.11       96.17       96.22       96.28       96.35       96.41       96.48       96.55       96.61       96.68    
        96.74       96.80       96.85       96.90       96.95       96.99       97.03       97.06       97.09       97.11    
        97.13       97.14       97.15       97.15       97.14       97.14       97.12       97.10       97.08       97.06    
        97.03       97.00       96.96       96.93       96.89       96.86       96.82       96.79       96.77       96.74    
        96.73       96.72       96.72       96.72       96.74       96.77       96.81       96.86       96.92       96.99    
        97.07       97.15       97.24       97.34       97.45       97.55       97.66       97.78       97.89       98.00    
        98.12       98.24       98.36       98.48       98.61       98.75       98.90       99.07       99.29       99.57    
        100.0    
  42    96.97       96.97       96.96       96.94       96.92       96.90       96.87       96.84       96.80       96.76    
        96.72       96.67       96.62       96.57       96.52       96.47       96.42       96.37       96.32       96.28    
        96.25       96.22       96.19       96.18       96.17       96.17       96.18       96.19       96.22       96.25    
        96.29       96.33       96.39       96.44       96.50       96.56       96.62       96.68       96.74       96.80    
        96.85       96.91       96.96       97.00       97.05       97.09       97.12       97.15       97.18       97.20    
        97.22       97.23       97.24       97.24       97.24       97.23       97.22       97.21       97.19       97.17    
        97.14       97.11       97.09       97.06       97.03       97.00       96.97       96.95       96.92       96.91    
        96.90       96.89       96.89       96.90       96.92       96.95       96.99       97.04       97.09       97.16    
        97.23       97.31       97.40       97.49       97.58       97.68       97.78       97.89       97.99       98.10    
        98.21       98.32       98.44       98.55       98.68       98.81       98.95       99.12       99.32       99.59    
        100.0    
  43    97.06       97.06       97.05       97.04       97.02       97.00       96.97       96.94       96.91       96.87    
        96.83       96.79       96.74       96.70       96.65       96.61       96.56       96.52       96.48       96.45    
        96.41       96.39       96.37       96.35       96.35       96.35       96.36       96.37       96.39       96.42    
        96.46       96.50       96.54       96.59       96.64       96.70       96.75       96.81       96.86       96.91    
        96.97       97.02       97.06       97.11       97.15       97.18       97.22       97.25       97.27       97.29    
        97.31       97.32       97.33       97.33       97.33       97.33       97.32       97.31       97.29       97.27    
        97.25       97.23       97.21       97.18       97.16       97.14       97.12       97.10       97.08       97.07    
        97.06       97.06       97.07       97.08       97.10       97.13       97.16       97.21       97.26       97.32    
        97.39       97.46       97.54       97.63       97.72       97.81       97.90       98.00       98.10       98.20    
        98.30       98.41       98.51       98.62       98.74       98.86       99.00       99.16       99.35       99.61    
        100.0    
  44    97.15       97.15       97.14       97.13       97.11       97.09       97.07       97.04       97.01       96.98    
        96.94       96.91       96.87       96.83       96.79       96.75       96.71       96.67       96.64       96.61    
        96.58       96.56       96.54       96.53       96.52       96.52       96.53       96.54       96.56       96.59    
        96.62       96.66       96.70       96.74       96.79       96.84       96.89       96.94       96.99       97.03    
        97.08       97.13       97.17       97.21       97.25       97.28       97.31       97.34       97.36       97.38    
        97.40       97.41       97.42       97.42       97.43       97.42       97.42       97.41       97.40       97.38    
        97.37       97.35       97.33       97.31       97.29       97.27       97.26       97.24       97.23       97.22    
        97.22       97.22       97.23       97.24       97.26       97.29       97.33       97.37       97.42       97.48    
        97.54       97.61       97.68       97.76       97.84       97.93       98.02       98.11       98.20       98.29    
        98.39       98.49       98.59       98.69       98.80       98.92       99.05       99.20       99.38       99.63    
        100.0    
  45    97.25       97.24       97.23       97.22       97.21       97.19       97.17       97.14       97.12       97.09    
        97.06       97.02       96.99       96.95       96.92       96.88       96.85       96.82       96.79       96.76    
        96.74       96.72       96.70       96.69       96.69       96.69       96.70       96.71       96.73       96.75    
        96.78       96.81       96.85       96.89       96.93       96.97       97.02       97.06       97.11       97.15    
        97.19       97.24       97.28       97.31       97.35       97.38       97.41       97.43       97.46       97.48    
        97.49       97.50       97.51       97.52       97.52       97.52       97.52       97.51       97.50       97.49    
        97.48       97.46       97.45       97.43       97.42       97.40       97.39       97.38       97.37       97.37    
        97.37       97.37       97.38       97.40       97.42       97.45       97.49       97.53       97.57       97.63    
        97.69       97.75       97.82       97.89       97.97       98.05       98.13       98.21       98.30       98.39    
        98.48       98.57       98.66       98.76       98.87       98.98       99.10       99.24       99.41       99.65    
        100.0    
  46    97.34       97.33       97.33       97.32       97.30       97.29       97.27       97.25       97.22       97.20    
        97.17       97.14       97.11       97.08       97.05       97.02       96.99       96.96       96.93       96.91    
        96.89       96.87       96.86       96.85       96.85       96.85       96.86       96.87       96.89       96.91    
        96.93       96.96       96.99       97.03       97.07       97.11       97.15       97.19       97.23       97.27    
        97.31       97.35       97.38       97.42       97.45       97.48       97.51       97.53       97.55       97.57    
        97.59       97.60       97.61       97.61       97.62       97.62       97.62       97.61       97.60       97.60    
        97.59       97.58       97.57       97.55       97.54       97.53       97.52       97.52       97.51       97.51    
        97.52       97.52       97.53       97.55       97.57       97.60       97.63       97.67       97.72       97.77    
        97.82       97.88       97.95       98.02       98.09       98.16       98.24       98.32       98.40       98.48    
        98.56       98.65       98.74       98.83       98.93       99.03       99.15       99.28       99.45       99.67    
        100.0    
  47    97.43       97.43       97.42       97.41       97.40       97.39       97.37       97.35       97.33       97.30    
        97.28       97.25       97.23       97.20       97.17       97.14       97.12       97.09       97.07       97.05    
        97.03       97.02       97.01       97.00       97.00       97.00       97.01       97.02       97.04       97.06    
        97.08       97.10       97.13       97.17       97.20       97.23       97.27       97.31       97.35       97.38    
        97.42       97.45       97.49       97.52       97.55       97.58       97.60       97.63       97.65       97.66    
        97.68       97.69       97.70       97.71       97.71       97.71       97.71       97.71       97.71       97.70    
        97.70       97.69       97.68       97.67       97.66       97.66       97.65       97.65       97.65       97.65    
        97.65       97.66       97.68       97.69       97.72       97.74       97.78       97.81       97.86       97.90    
        97.96       98.01       98.07       98.13       98.20       98.27       98.34       98.41       98.49       98.57    
        98.65       98.73       98.81       98.90       98.99       99.09       99.20       99.32       99.48       99.68    
        100.0    
  48    97.52       97.52       97.52       97.51       97.50       97.48       97.47       97.45       97.43       97.41    
        97.39       97.37       97.34       97.32       97.29       97.27       97.25       97.23       97.21       97.19    
        97.17       97.16       97.15       97.15       97.15       97.15       97.16       97.17       97.18       97.20    
        97.22       97.24       97.27       97.30       97.33       97.36       97.39       97.43       97.46       97.49    
        97.53       97.56       97.59       97.62       97.65       97.67       97.70       97.72       97.74       97.76    
        97.77       97.78       97.79       97.80       97.81       97.81       97.81       97.81       97.81       97.81    
        97.80       97.80       97.79       97.79       97.78       97.78       97.78       97.77       97.78       97.78    
        97.79       97.80       97.81       97.83       97.85       97.88       97.91       97.95       97.99       98.03    
        98.08       98.13       98.19       98.25       98.31       98.38       98.44       98.51       98.58       98.65    
        98.73       98.80       98.88       98.96       99.05       99.14       99.24       99.36       99.51       99.70    
        100.0    
  49    97.62       97.61       97.61       97.60       97.59       97.58       97.57       97.55       97.53       97.52    
        97.50       97.48       97.45       97.43       97.41       97.39       97.37       97.35       97.34       97.32    
        97.31       97.30       97.29       97.29       97.29       97.29       97.30       97.31       97.32       97.33    
        97.35       97.38       97.40       97.43       97.45       97.48       97.51       97.54       97.57       97.60    
        97.64       97.66       97.69       97.72       97.75       97.77       97.79       97.81       97.83       97.85    
        97.86       97.88       97.89       97.89       97.90       97.91       97.91       97.91       97.91       97.91    
        97.91       97.90       97.90       97.90       97.90       97.89       97.89       97.90       97.90       97.91    
        97.92       97.93       97.94       97.96       97.98       98.01       98.04       98.08       98.11       98.16    
        98.20       98.25       98.30       98.36       98.42       98.48       98.54       98.60       98.67       98.74    
        98.80       98.88       98.95       99.02       99.11       99.19       99.29       99.40       99.54       99.72    
        100.0    
  50    97.71       97.71       97.70       97.69       97.69       97.68       97.66       97.65       97.64       97.62    
        97.60       97.58       97.57       97.55       97.53       97.51       97.49       97.48       97.46       97.45    
        97.44       97.43       97.43       97.42       97.42       97.42       97.43       97.44       97.45       97.47    
        97.48       97.50       97.53       97.55       97.57       97.60       97.63       97.66       97.68       97.71    
        97.74       97.77       97.79       97.82       97.84       97.87       97.89       97.91       97.93       97.94    
        97.96       97.97       97.98       97.99       97.99       98.00       98.00       98.01       98.01       98.01    
        98.01       98.01       98.01       98.01       98.01       98.01       98.01       98.01       98.02       98.03    
        98.04       98.05       98.07       98.09       98.11       98.13       98.16       98.20       98.23       98.27    
        98.32       98.36       98.41       98.46       98.52       98.57       98.63       98.69       98.75       98.82    
        98.88       98.95       99.01       99.09       99.16       99.24       99.33       99.44       99.57       99.74    
        100.0    
  51    97.80       97.80       97.79       97.79       97.78       97.77       97.76       97.75       97.73       97.72    
        97.70       97.69       97.67       97.66       97.64       97.62       97.61       97.60       97.58       97.57    
        97.56       97.56       97.55       97.55       97.55       97.55       97.56       97.57       97.58       97.59    
        97.61       97.63       97.65       97.67       97.69       97.72       97.74       97.77       97.79       97.82    
        97.84       97.87       97.89       97.92       97.94       97.96       97.98       98.00       98.02       98.03    
        98.05       98.06       98.07       98.08       98.09       98.09       98.10       98.10       98.10       98.11    
        98.11       98.11       98.11       98.11       98.11       98.12       98.12       98.13       98.13       98.14    
        98.15       98.17       98.18       98.20       98.23       98.25       98.28       98.31       98.35       98.38    
        98.43       98.47       98.52       98.56       98.61       98.67       98.72       98.78       98.83       98.89    
        98.95       99.01       99.08       99.15       99.22       99.29       99.38       99.47       99.59       99.76    
        100.0    
  52    97.89       97.89       97.88       97.88       97.87       97.86       97.85       97.84       97.83       97.82    
        97.81       97.79       97.78       97.76       97.75       97.74       97.72       97.71       97.70       97.69    
        97.68       97.68       97.67       97.67       97.67       97.68       97.68       97.69       97.70       97.71    
        97.73       97.74       97.76       97.78       97.80       97.83       97.85       97.87       97.90       97.92    
        97.94       97.97       97.99       98.01       98.03       98.05       98.07       98.09       98.11       98.12    
        98.13       98.15       98.16       98.17       98.18       98.18       98.19       98.19       98.20       98.20    
        98.20       98.21       98.21       98.21       98.22       98.22       98.23       98.23       98.24       98.25    
        98.27       98.28       98.30       98.32       98.34       98.36       98.39       98.42       98.45       98.49    
        98.53       98.57       98.61       98.66       98.71       98.76       98.81       98.86       98.91       98.97    
        99.02       99.08       99.14       99.20       99.27       99.34       99.42       99.51       99.62       99.77    
        100.0    
  53    97.98       97.97       97.97       97.97       97.96       97.95       97.95       97.94       97.93       97.92    
        97.90       97.89       97.88       97.87       97.86       97.84       97.83       97.82       97.81       97.81    
        97.80       97.79       97.79       97.79       97.79       97.80       97.80       97.81       97.82       97.83    
        97.84       97.86       97.88       97.89       97.91       97.93       97.95       97.98       98.00       98.02    
        98.04       98.06       98.08       98.10       98.12       98.14       98.16       98.18       98.19       98.21    
        98.22       98.23       98.24       98.25       98.26       98.27       98.28       98.28       98.29       98.29    
        98.30       98.30       98.31       98.31       98.32       98.32       98.33       98.34       98.35       98.36    
        98.37       98.39       98.40       98.42       98.45       98.47       98.50       98.53       98.56       98.59    
        98.63       98.67       98.71       98.75       98.79       98.84       98.89       98.94       98.99       99.04    
        99.09       99.14       99.20       99.26       99.32       99.39       99.46       99.55       99.65       99.79    
        100.0    
  54    98.06       98.06       98.06       98.06       98.05       98.04       98.04       98.03       98.02       98.01    
        98.00       97.99       97.98       97.97       97.96       97.95       97.94       97.93       97.92       97.92    
        97.91       97.91       97.90       97.90       97.91       97.91       97.91       97.92       97.93       97.94    
        97.95       97.97       97.98       98.00       98.02       98.04       98.06       98.08       98.10       98.12    
        98.14       98.16       98.18       98.20       98.21       98.23       98.25       98.27       98.28       98.29    
        98.31       98.32       98.33       98.34       98.35       98.36       98.36       98.37       98.38       98.38    
        98.39       98.39       98.40       98.41       98.41       98.42       98.43       98.44       98.45       98.46    
        98.47       98.49       98.51       98.53       98.55       98.57       98.60       98.62       98.66       98.69    
        98.72       98.76       98.80       98.84       98.88       98.92       98.97       99.01       99.06       99.11    
        99.16       99.21       99.26       99.31       99.37       99.43       99.50       99.58       99.68       99.80    
        100.0    
  55    98.15       98.15       98.15       98.14       98.14       98.13       98.13       98.12       98.11       98.10    
        98.09       98.08       98.07       98.07       98.06       98.05       98.04       98.03       98.03       98.02    
        98.02       98.01       98.01       98.01       98.01       98.02       98.02       98.03       98.04       98.05    
        98.06       98.07       98.09       98.10       98.12       98.14       98.15       98.17       98.19       98.21    
        98.23       98.25       98.27       98.28       98.30       98.32       98.33       98.35       98.36       98.38    
        98.39       98.40       98.41       98.42       98.43       98.44       98.45       98.46       98.46       98.47    
        98.48       98.48       98.49       98.50       98.51       98.51       98.52       98.53       98.54       98.56    
        98.57       98.59       98.60       98.62       98.64       98.67       98.69       98.72       98.75       98.78    
        98.81       98.85       98.88       98.92       98.96       99.00       99.04       99.08       99.13       99.17    
        99.22       99.26       99.31       99.36       99.42       99.47       99.54       99.61       99.70       99.82    
        100.0    
  56    98.23       98.23       98.23       98.23       98.22       98.22       98.21       98.21       98.20       98.19    
[...]
        99.48       99.48       99.49       99.49       99.50       99.50       99.51       99.51       99.52       99.53    
        99.53       99.54       99.54       99.55       99.56       99.56       99.57       99.58       99.58       99.59    
        99.60       99.60       99.61       99.62       99.63       99.63       99.64       99.65       99.66       99.66    
        99.67       99.68       99.69       99.69       99.70       99.71       99.72       99.73       99.73       99.74    
        99.75       99.75       99.76       99.77       99.77       99.78       99.78       99.79       99.79       99.79    
        99.79    
  89    99.35       99.35       99.35       99.35       99.36       99.36       99.36       99.36       99.36       99.36    
        99.36       99.36       99.36       99.36       99.36       99.36       99.36       99.36       99.36       99.37    
        99.37       99.37       99.37       99.37       99.37       99.38       99.38       99.38       99.38       99.39    
        99.39       99.39       99.39       99.40       99.40       99.40       99.41       99.41       99.42       99.42    
        99.42       99.43       99.43       99.44       99.44       99.44       99.45       99.45       99.46       99.46    
        99.47       99.47       99.48       99.48       99.49       99.49       99.50       99.51       99.51       99.52    
        99.52       99.53       99.53       99.54       99.55       99.55       99.56       99.57       99.57       99.58    
        99.59       99.59       99.60       99.61       99.61       99.62       99.63       99.64       99.64       99.65    
        99.66       99.67       99.67       99.68       99.69       99.70       99.70       99.71       99.72       99.73    
        99.73       99.74       99.75       99.75       99.76       99.76       99.77       99.77       99.78       99.78    
        99.78    
  90    99.35       99.35       99.35       99.35       99.35       99.35       99.35       99.35       99.35       99.35    
        99.35       99.35       99.35       99.35       99.35       99.36       99.36       99.36       99.36       99.36    
        99.36       99.36       99.36       99.37       99.37       99.37       99.37       99.38       99.38       99.38    
        99.38       99.39       99.39       99.39       99.39       99.40       99.40       99.40       99.41       99.41    
        99.42       99.42       99.42       99.43       99.43       99.44       99.44       99.44       99.45       99.45    
        99.46       99.46       99.47       99.47       99.48       99.48       99.49       99.49       99.50       99.51    
        99.51       99.52       99.52       99.53       99.53       99.54       99.55       99.55       99.56       99.57    
        99.57       99.58       99.59       99.59       99.60       99.61       99.61       99.62       99.63       99.63    
        99.64       99.65       99.66       99.66       99.67       99.68       99.69       99.69       99.70       99.71    
        99.72       99.72       99.73       99.74       99.74       99.75       99.75       99.76       99.76       99.76    
        99.76    
  91    99.34       99.34       99.34       99.34       99.34       99.34       99.34       99.34       99.34       99.35    
        99.35       99.35       99.35       99.35       99.35       99.35       99.35       99.35       99.35       99.35    
        99.35       99.36       99.36       99.36       99.36       99.36       99.37       99.37       99.37       99.37    
        99.37       99.38       99.38       99.38       99.39       99.39       99.39       99.40       99.40       99.40    
        99.41       99.41       99.41       99.42       99.42       99.43       99.43       99.43       99.44       99.44    
        99.45       99.45       99.46       99.46       99.47       99.47       99.48       99.48       99.49       99.49    
        99.50       99.50       99.51       99.52       99.52       99.53       99.53       99.54       99.55       99.55    
        99.56       99.56       99.57       99.58       99.58       99.59       99.60       99.60       99.61       99.62    
        99.63       99.63       99.64       99.65       99.65       99.66       99.67       99.68       99.68       99.69    
        99.70       99.71       99.71       99.72       99.73       99.73       99.74       99.74       99.75       99.75    
        99.75    
  92    99.34       99.34       99.34       99.34       99.34       99.34       99.34       99.34       99.34       99.34    
        99.34       99.34       99.34       99.34       99.34       99.34       99.34       99.34       99.34       99.34    
        99.35       99.35       99.35       99.35       99.35       99.35       99.36       99.36       99.36       99.36    
        99.37       99.37       99.37       99.37       99.38       99.38       99.38       99.39       99.39       99.39    
        99.40       99.40       99.40       99.41       99.41       99.41       99.42       99.42       99.43       99.43    
        99.44       99.44       99.45       99.45       99.45       99.46       99.46       99.47       99.47       99.48    
        99.48       99.49       99.50       99.50       99.51       99.51       99.52       99.52       99.53       99.54    
        99.54       99.55       99.55       99.56       99.57       99.57       99.58       99.59       99.59       99.60    
        99.61       99.61       99.62       99.63       99.64       99.64       99.65       99.66       99.67       99.67    
        99.68       99.69       99.70       99.70       99.71       99.72       99.72       99.73       99.73       99.73    
        99.73    
  93    99.33       99.33       99.33       99.33       99.33       99.33       99.33       99.33       99.33       99.33    
        99.33       99.33       99.33       99.33       99.33       99.33       99.33       99.33       99.33       99.33    
        99.34       99.34       99.34       99.34       99.34       99.34       99.35       99.35       99.35       99.35    
        99.35       99.36       99.36       99.36       99.37       99.37       99.37       99.37       99.38       99.38    
        99.38       99.39       99.39       99.39       99.40       99.40       99.41       99.41       99.41       99.42    
        99.42       99.43       99.43       99.44       99.44       99.45       99.45       99.45       99.46       99.46    
        99.47       99.47       99.48       99.49       99.49       99.50       99.50       99.51       99.51       99.52    
        99.52       99.53       99.54       99.54       99.55       99.56       99.56       99.57       99.57       99.58    
        99.59       99.60       99.60       99.61       99.62       99.62       99.63       99.64       99.65       99.65    
        99.66       99.67       99.68       99.68       99.69       99.70       99.70       99.71       99.71       99.71    
        99.72    
  94    99.32       99.32       99.32       99.32       99.32       99.32       99.32       99.32       99.32       99.32    
        99.32       99.32       99.32       99.32       99.32       99.32       99.32       99.32       99.32       99.32    
        99.33       99.33       99.33       99.33       99.33       99.33       99.34       99.34       99.34       99.34    
        99.34       99.35       99.35       99.35       99.35       99.36       99.36       99.36       99.37       99.37    
        99.37       99.38       99.38       99.38       99.39       99.39       99.39       99.40       99.40       99.40    
        99.41       99.41       99.42       99.42       99.43       99.43       99.44       99.44       99.44       99.45    
        99.45       99.46       99.46       99.47       99.47       99.48       99.48       99.49       99.50       99.50    
        99.51       99.51       99.52       99.52       99.53       99.54       99.54       99.55       99.56       99.56    
        99.57       99.58       99.58       99.59       99.60       99.60       99.61       99.62       99.63       99.64    
        99.64       99.65       99.66       99.67       99.67       99.68       99.69       99.69       99.69       99.70    
        99.70    
  95    99.31       99.31       99.31       99.31       99.31       99.31       99.31       99.31       99.31       99.31    
        99.31       99.31       99.31       99.31       99.31       99.31       99.31       99.31       99.31       99.31    
        99.31       99.32       99.32       99.32       99.32       99.32       99.32       99.33       99.33       99.33    
        99.33       99.33       99.34       99.34       99.34       99.34       99.35       99.35       99.35       99.36    
        99.36       99.36       99.37       99.37       99.37       99.38       99.38       99.38       99.39       99.39    
        99.39       99.40       99.40       99.41       99.41       99.42       99.42       99.42       99.43       99.43    
        99.44       99.44       99.45       99.45       99.46       99.46       99.47       99.47       99.48       99.48    
        99.49       99.50       99.50       99.51       99.51       99.52       99.52       99.53       99.54       99.54    
        99.55       99.56       99.56       99.57       99.58       99.59       99.59       99.60       99.61       99.62    
        99.62       99.63       99.64       99.65       99.65       99.66       99.67       99.67       99.68       99.68    
        99.68    
  96    99.30       99.30       99.30       99.30       99.30       99.30       99.30       99.30       99.30       99.30    
        99.30       99.30       99.30       99.30       99.30       99.30       99.30       99.30       99.30       99.30    
        99.30       99.30       99.31       99.31       99.31       99.31       99.31       99.31       99.32       99.32    
        99.32       99.32       99.32       99.33       99.33       99.33       99.34       99.34       99.34       99.34    
        99.35       99.35       99.35       99.36       99.36       99.36       99.37       99.37       99.37       99.38    
        99.38       99.39       99.39       99.39       99.40       99.40       99.41       99.41       99.41       99.42    
        99.42       99.43       99.43       99.44       99.44       99.45       99.45       99.46       99.46       99.47    
        99.47       99.48       99.48       99.49       99.50       99.50       99.51       99.51       99.52       99.53    
        99.53       99.54       99.55       99.55       99.56       99.57       99.57       99.58       99.59       99.60    
        99.61       99.61       99.62       99.63       99.64       99.64       99.65       99.66       99.66       99.66    
        99.67    
  97    99.29       99.29       99.29       99.29       99.29       99.29       99.29       99.29       99.29       99.29    
        99.29       99.29       99.29       99.29       99.29       99.29       99.29       99.29       99.29       99.29    
        99.29       99.29       99.30       99.30       99.30       99.30       99.30       99.30       99.31       99.31    
        99.31       99.31       99.31       99.32       99.32       99.32       99.32       99.33       99.33       99.33    
        99.34       99.34       99.34       99.34       99.35       99.35       99.35       99.36       99.36       99.37    
        99.37       99.37       99.38       99.38       99.38       99.39       99.39       99.40       99.40       99.41    
        99.41       99.41       99.42       99.42       99.43       99.43       99.44       99.44       99.45       99.45    
        99.46       99.46       99.47       99.47       99.48       99.49       99.49       99.50       99.50       99.51    
        99.52       99.52       99.53       99.54       99.54       99.55       99.56       99.57       99.57       99.58    
        99.59       99.60       99.61       99.61       99.62       99.63       99.64       99.64       99.65       99.65    
        99.65    
  98    99.28       99.28       99.28       99.28       99.28       99.28       99.28       99.28       99.28       99.28    
        99.28       99.28       99.28       99.28       99.28       99.28       99.28       99.28       99.28       99.28    
        99.28       99.29       99.29       99.29       99.29       99.29       99.29       99.29       99.30       99.30    
        99.30       99.30       99.30       99.31       99.31       99.31       99.31       99.32       99.32       99.32    
        99.32       99.33       99.33       99.33       99.34       99.34       99.34       99.35       99.35       99.35    
        99.36       99.36       99.37       99.37       99.37       99.38       99.38       99.38       99.39       99.39    
        99.40       99.40       99.41       99.41       99.42       99.42       99.43       99.43       99.43       99.44    
        99.44       99.45       99.46       99.46       99.47       99.47       99.48       99.48       99.49       99.50    
        99.50       99.51       99.51       99.52       99.53       99.54       99.54       99.55       99.56       99.57    
        99.57       99.58       99.59       99.60       99.61       99.61       99.62       99.63       99.63       99.64    
        99.64    
  99    99.27       99.27       99.27       99.27       99.27       99.27       99.27       99.27       99.27       99.27    
        99.27       99.27       99.27       99.27       99.27       99.27       99.27       99.27       99.27       99.28    
        99.28       99.28       99.28       99.28       99.28       99.28       99.28       99.29       99.29       99.29    
        99.29       99.29       99.30       99.30       99.30       99.30       99.31       99.31       99.31       99.31    
        99.32       99.32       99.32       99.33       99.33       99.33       99.33       99.34       99.34       99.35    
        99.35       99.35       99.36       99.36       99.36       99.37       99.37       99.38       99.38       99.38    
        99.39       99.39       99.40       99.40       99.41       99.41       99.41       99.42       99.42       99.43    
        99.43       99.44       99.44       99.45       99.46       99.46       99.47       99.47       99.48       99.48    
        99.49       99.50       99.50       99.51       99.52       99.52       99.53       99.54       99.55       99.55    
        99.56       99.57       99.58       99.59       99.60       99.60       99.61       99.62       99.62       99.63    
        99.63    
 100    99.27       99.27       99.27       99.27       99.27       99.27       99.26       99.26       99.26       99.26    
        99.27       99.27       99.27       99.27       99.27       99.27       99.27       99.27       99.27       99.27    
        99.27       99.27       99.27       99.28       99.28       99.28       99.28       99.28       99.28       99.28    
        99.29       99.29       99.29       99.29       99.30       99.30       99.30       99.30       99.31       99.31    
        99.31       99.31       99.32       99.32       99.32       99.33       99.33       99.33       99.34       99.34    
        99.34       99.35       99.35       99.35       99.36       99.36       99.36       99.37       99.37       99.38    
        99.38       99.39       99.39       99.39       99.40       99.40       99.41       99.41       99.42       99.42    
        99.43       99.43       99.44       99.44       99.45       99.45       99.46       99.46       99.47       99.48    
        99.48       99.49       99.50       99.50       99.51       99.52       99.52       99.53       99.54       99.55    
        99.55       99.56       99.57       99.58       99.59       99.60       99.60       99.61       99.61       99.62    
        99.62    
 101    99.26       99.26       99.26       99.26       99.26       99.26       99.26       99.26       99.26       99.26    
        99.26       99.26       99.26       99.26       99.26       99.26       99.27       99.27       99.27       99.27    
        99.27       99.27       99.27       99.27       99.27       99.28       99.28       99.28       99.28       99.28    
        99.28       99.29       99.29       99.29       99.29       99.29       99.30       99.30       99.30       99.30    
        99.31       99.31       99.31       99.32       99.32       99.32       99.33       99.33       99.33       99.34    
        99.34       99.34       99.35       99.35       99.35       99.36       99.36       99.37       99.37       99.37    
        99.38       99.38       99.39       99.39       99.39       99.40       99.40       99.41       99.41       99.42    
        99.42       99.43       99.43       99.44       99.44       99.45       99.45       99.46       99.47       99.47    
        99.48       99.48       99.49       99.50       99.50       99.51       99.52       99.53       99.53       99.54    
        99.55       99.56       99.57       99.58       99.58       99.59       99.60       99.61       99.61       99.61    
        99.62    

 HEAD WILL BE SAVED ON UNIT 1016 AT END OF TIME STEP    1, STRESS PERIOD    1


  VOLUME BUDGET FOR ENTIRE MODEL AT END OF TIME STEP    1, STRESS PERIOD   1
  ---------------------------------------------------------------------------------------------------

     CUMULATIVE VOLUME      L**3       RATES FOR THIS TIME STEP      L**3/T          PACKAGE NAME    
     ------------------                 ------------------------                     ----------------

           IN:                                      IN:
           ---                                      ---
              STO-SS =         178.0238                STO-SS =         178.0238     STORAGE                          
              STO-SY =           0.0000                STO-SY =           0.0000     STORAGE                          
                 WEL =           0.0000                   WEL =           0.0000     WEL_0                            
                RCHA =        1521.1294                  RCHA =        1521.1294     RCH                              
                 CHD =         939.1920                   CHD =         939.1920     CHD_0                            

            TOTAL IN =        2638.3453              TOTAL IN =        2638.3453

          OUT:                                     OUT:
          ----                                     ----
              STO-SS =       3.3501E-04                STO-SS =       3.3501E-04     STORAGE                          
              STO-SY =           0.0000                STO-SY =           0.0000     STORAGE                          
                 WEL =        2368.4615                   WEL =        2368.4615     WEL_0                            
                RCHA =           0.0000                  RCHA =           0.0000     RCH                              
                 CHD =         272.4531                   CHD =         272.4531     CHD_0                            

           TOTAL OUT =        2640.9149             TOTAL OUT =        2640.9149

            IN - OUT =          -2.5696              IN - OUT =          -2.5696

 PERCENT DISCREPANCY =          -0.10     PERCENT DISCREPANCY =          -0.10




         TIME SUMMARY AT END OF TIME STEP    1 IN STRESS PERIOD    1
                    SECONDS     MINUTES      HOURS       DAYS        YEARS
                    -----------------------------------------------------------
   TIME STEP LENGTH  86400.      1440.0      24.000      1.0000     2.73785E-03
 STRESS PERIOD TIME  86400.      1440.0      24.000      1.0000     2.73785E-03
         TOTAL TIME  86400.      1440.0      24.000      1.0000     2.73785E-03


end timestep

