                                   MODFLOW 6
                U.S. GEOLOGICAL SURVEY MODULAR HYDROLOGIC MODEL
                          GROUNDWATER FLOW MODEL (GWF)
                        VERSION 6.4.1 Release 12/09/2022

   MODFLOW 6 compiled Dec 09 2022 18:18:37 with Intel(R) Fortran Intel(R) 64
   Compiler Classic for applications running on Intel(R) 64, Version 2021.7.0
                             Build 20220726_000000

This software has been approved for release by the U.S. Geological 
Survey (USGS). Although the software has been subjected to rigorous 
review, the USGS reserves the right to update the software as needed 
pursuant to further analysis and review. No warranty, expressed or 
implied, is made by the USGS or the U.S. Government as to the 
functionality of the software and related material nor shall the 
fact of release constitute any such warranty. Furthermore, the 
software is released on condition that neither the USGS nor the U.S. 
Government shall be held liable for any damages resulting from its 
authorized or unauthorized use. Also refer to the USGS Water 
Resources Software User Rights Notice for complete use, copyright, 
and distribution information.


As a work of the United States Government, this USGS product is 
in the public domain within the United States. You can copy, 
modify, distribute, and perform the work, even for commercial 
purposes, all without asking permission. Additionally, USGS 
waives copyright and related rights in the work worldwide 
through CC0 1.0 Universal Public Domain Dedication 
(https://creativecommons.org/publicdomain/zero/1.0/).

The following GNU Lesser General Public License (LGPL) libraries
are used in this USGS product:

    SPARSKIT version 2.0
      ilut, luson, and qsplit 
      (https://www-users.cse.umn.edu/~saad/software/SPARSKIT/)

    RCM - Reverse Cuthill McKee Ordering
      (https://people.math.sc.edu/Burkardt/f_src/rcm/rcm.html)

    BLAS - Basic Linear Algebra Subprograms Level 1
      (https://people.math.sc.edu/Burkardt/f_src/blas1_d/blas1_d.html)

    SPARSEKIT - Sparse Matrix Utility Package
      amux, dperm, dvperm, rperm, and cperm
      (https://people.sc.fsu.edu/~jburkardt/f77_src/sparsekit/sparsekit.html)

The following BSD-3 License libraries are used in this USGS product:

    Modern Fortran DAG Library
      Copyright (c) 2018, Jacob Williams
      All rights reserved.
      (https://github.com/jacobwilliams/daglib)

MODFLOW 6 compiler options: /Isrc\libmf6core.a.p /Isrc /I..\src
/Isrc\libmf6_external.a.p /MTd /nologo /warn:general /warn:truncated_source
/stand:f08 /Zi /traceback /O2 /fpe:0 /heap-arrays:0 /traceback /fpp
/Qdiag-disable:7416 /Qdiag-disable:7025 /Qdiag-disable:5268
/Fdsrc\libmf6core.a.p\Utilities_compilerversion.F90.pdb
/module:src\libmf6core.a.p
/Fosrc/libmf6core.a.p/Utilities_compilerversion.F90.obj /c

System command used to initiate simulation:
"C:\Users\ksil8584\OneDrive - The University of Sydney (Staff)\Documents\Modflow\mf6.4.1\bin\mf6.exe"

MODFLOW was compiled using uniform precision.

Real Variables
  KIND: 8
  TINY (smallest non-zero value):    2.225074-308
  HUGE (largest value):    1.797693+308
  PRECISION: 15
  SIZE IN BITS: 64

Integer Variables
  KIND: 4
  HUGE (largest value): 2147483647
  SIZE IN BITS: 32

Long Integer Variables
  KIND: 8
  HUGE (largest value): 9223372036854775807
  SIZE IN BITS: 64

Logical Variables
  KIND: 4
  SIZE IN BITS: 32
 

 OPENED FloPy_ModelS_T1b.dis
 FILE TYPE:DIS6                   UNIT 1005   STATUS:OLD                 
 FORMAT:FORMATTED              ACCESS:SEQUENTIAL          
 ACTION:READ                


 OPENED FloPy_ModelS_T1b.ic
 FILE TYPE:IC6                    UNIT 1006   STATUS:OLD                 
 FORMAT:FORMATTED              ACCESS:SEQUENTIAL          
 ACTION:READ                


 OPENED FloPy_ModelS_T1b.npf
 FILE TYPE:NPF6                   UNIT 1007   STATUS:OLD                 
 FORMAT:FORMATTED              ACCESS:SEQUENTIAL          
 ACTION:READ                


 OPENED FloPy_ModelS_T1b.chd
 FILE TYPE:CHD6                   UNIT 1008   STATUS:OLD                 
 FORMAT:FORMATTED              ACCESS:SEQUENTIAL          
 ACTION:READ                


 OPENED FloPy_ModelS_T1b.oc
 FILE TYPE:OC6                    UNIT 1009   STATUS:OLD                 
 FORMAT:FORMATTED              ACCESS:SEQUENTIAL          
 ACTION:READ                


 OPENED FloPy_ModelS_T1b.wel
 FILE TYPE:WEL6                   UNIT 1010   STATUS:OLD                 
 FORMAT:FORMATTED              ACCESS:SEQUENTIAL          
 ACTION:READ                


 OPENED FloPy_ModelS_T1b.rcha
 FILE TYPE:RCH6                   UNIT 1011   STATUS:OLD                 
 FORMAT:FORMATTED              ACCESS:SEQUENTIAL          
 ACTION:READ                

 NAMEFILE OPTIONS:
    FLOWS WILL BE SAVED TO BUDGET FILE SPECIFIED IN OUTPUT CONTROL
    NEWTON-RAPHSON method enabled for the model.
    NEWTON-RAPHSON UNDER-RELAXATION based on the bottom elevation of the model will be applied to the model.

 DIS -- STRUCTURED GRID DISCRETIZATION PACKAGE, VERSION 2 : 3/27/2014 - INPUT READ FROM UNIT 1005

 Loading input for FLOPY_MODELS_T1B/DIS
 # File generated by Flopy version 3.3.6 on 06/05/2023 at 17:07:43.
   NLAY = 10
   NROW = 101
   NCOL = 101
   DELR = 4.000000000000000
   DELC = 4.000000000000000
   TOP = .000000000000000
   BOTM = variable 3D double precision array ranging from -50.00000000000000 to -5.000000000000000
 Loading input complete...


 NPF -- NODE PROPERTY FLOW PACKAGE, VERSION 1, 3/30/2015 INPUT READ FROM UNIT 1007

 Loading input for FLOPY_MODELS_T1B/NPF
 # File generated by Flopy version 3.3.6 on 06/05/2023 at 17:07:43.
   ICELLTYPE = 1
   K = 1.000000000000000
 Loading input complete...

 Setting Discretization Options
 End Setting Discretization Options

 Setting Discretization Dimensions
    NLAY = 10
    NROW = 101
    NCOL = 101
 End Setting Discretization Dimensions

 Setting Discretization Griddata
    DELR set from input file
    DELC set from input file
    TOP set from input file
    BOTM set from input file
 End Setting Discretization Griddata

 Setting NPF Options
 End Setting NPF Options

 Setting NPF Griddata
    ICELLTYPE set from input file
    K set from input file
    K33 not provided.  Setting K33 = K.
    K22 not provided.  Setting K22 = K.
 End Setting NPF Griddata


 WEL   -- WEL PACKAGE, VERSION 8, 2/22/2014 INPUT READ FROM UNIT 1010
 # File generated by Flopy version 3.3.6 on 06/05/2023 at 17:07:43.

 PROCESSING WEL OPTIONS
 END OF WEL OPTIONS

 PROCESSING WEL DIMENSIONS
    MAXBOUND =       1
 END OF WEL DIMENSIONS

 RCH   -- RCH PACKAGE, VERSION 8, 2/22/2014 INPUT READ FROM UNIT 1011
 # File generated by Flopy version 3.3.6 on 06/05/2023 at 17:07:43.

 PROCESSING RCH OPTIONS
    RECHARGE INPUT WILL BE READ AS ARRAY(S).
 END OF RCHA OPTIONS

 CHD   -- CHD PACKAGE, VERSION 8, 2/22/2014 INPUT READ FROM UNIT 1008
 # File generated by Flopy version 3.3.6 on 06/05/2023 at 17:07:43.

 PROCESSING CHD OPTIONS
 END OF CHD OPTIONS

 PROCESSING CHD DIMENSIONS
    MAXBOUND =     400
 END OF CHD DIMENSIONS

 IC -- INITIAL CONDITIONS PACKAGE, VERSION 8, 3/28/2015 INPUT READ FROM UNIT 1006
 # File generated by Flopy version 3.3.6 on 06/05/2023 at 17:07:43.
 PROCESSING GRIDDATA
 END PROCESSING GRIDDATA
    BINARY GRID INFORMATION WILL BE WRITTEN TO:
      UNIT NUMBER: 1013
      FILE NAME: C:\Users\ksil8584\OneDrive - The University of Sydney (Staff)\Documents\Modflow\FloPy models\FP_ModelS_1b\output2\FloPy_ModelS_T1b.dis.grb

 OPENED C:\Users\ksil8584\OneDrive - The University of Sydney (Staff)\Documents\Modflow\FloPy models\FP_ModelS_1b\output2\FloPy_ModelS_T1b.dis.grb
 FILE TYPE:DATA(BINARY)   UNIT 1013   STATUS:REPLACE             
 FORMAT:UNFORMATTED            ACCESS:STREAM              
 ACTION:READWRITE           

      THE LAST TIME STEP WILL BE PRINTED
      THE LAST TIME STEP WILL BE PRINTED
 # File generated by Flopy version 3.3.6 on 06/05/2023 at 17:07:43.

 PROCESSING OC OPTIONS

    BUDGET INFORMATION WILL BE WRITTEN TO:
      UNIT NUMBER: 1014
      FILE NAME: FloPy_ModelS_T1b.cbb

 OPENED FloPy_ModelS_T1b.cbb
 FILE TYPE:DATA(BINARY)   UNIT 1014   STATUS:REPLACE             
 FORMAT:UNFORMATTED            ACCESS:STREAM              
 ACTION:READWRITE           

    HEAD INFORMATION WILL BE WRITTEN TO:
      UNIT NUMBER: 1015
      FILE NAME: FloPy_ModelS_T1b.hds

 OPENED FloPy_ModelS_T1b.hds
 FILE TYPE:DATA(BINARY)   UNIT 1015   STATUS:REPLACE             
 FORMAT:UNFORMATTED            ACCESS:STREAM              
 ACTION:READWRITE           

 END OF OC OPTIONS

start timestep kper="1" kstp="1" mode="normal"


 BEGIN READING OUTPUT CONTROL FOR STRESS PERIOD 1
      ALL TIME STEPS WILL BE SAVED
      ALL TIME STEPS WILL BE SAVED
      THE LAST TIME STEP WILL BE PRINTED

 END READING OUTPUT CONTROL FOR STRESS PERIOD 1

                 RECHARGE =  0.4803312E-01
 UBDSV1 SAVING     FLOW-JA-FACE ON UNIT   1014 AT TIME STEP      1, STRESS PERIOD      1
 UBDSV06 SAVING              WEL IN MODEL FLOPY_MODELS_T1B PACKAGE FLOPY_MODELS_T1BCONNECTED TO MODEL FLOPY_MODELS_T1B PACKAGE WEL_0            ON UNIT   1014 AT TIME STEP      1, STRESS PERIOD      1
 UBDSV06 SAVING             RCHA IN MODEL FLOPY_MODELS_T1B PACKAGE FLOPY_MODELS_T1BCONNECTED TO MODEL FLOPY_MODELS_T1B PACKAGE RCH              ON UNIT   1014 AT TIME STEP      1, STRESS PERIOD      1
 UBDSV06 SAVING              CHD IN MODEL FLOPY_MODELS_T1B PACKAGE FLOPY_MODELS_T1BCONNECTED TO MODEL FLOPY_MODELS_T1B PACKAGE CHD_0            ON UNIT   1014 AT TIME STEP      1, STRESS PERIOD      1
1
  HEAD IN LAYER   1 AT END OF TIME STEP   1 IN STRESS PERIOD    1
  ---------------------------------------------------------------------------

            1           2           3           4           5           6           7           8           9          10
           11          12          13          14          15          16          17          18          19          20
           21          22          23          24          25          26          27          28          29          30
           31          32          33          34          35          36          37          38          39          40
           41          42          43          44          45          46          47          48          49          50
           51          52          53          54          55          56          57          58          59          60
           61          62          63          64          65          66          67          68          69          70
           71          72          73          74          75          76          77          78          79          80
           81          82          83          84          85          86          87          88          89          90
           91          92          93          94          95          96          97          98          99         100
          101
 ........................................................................................................................
   1    100.0       100.0       100.0       100.0       100.0       100.0       100.0       100.0       100.0       100.0    
        100.0       100.0       100.0       100.0       100.0       100.0       100.0       100.0       100.0       100.0    
        100.0       100.0       100.0       100.0       100.0       100.0       100.0       100.0       100.0       100.0    
        100.0       100.0       100.0       100.0       100.0       100.0       100.0       100.0       100.0       100.0    
        100.0       100.0       100.0       100.0       100.0       100.0       100.0       100.0       100.0       100.0    
        100.0       100.0       100.0       100.0       100.0       100.0       100.0       100.0       100.0       100.0    
        100.0       100.0       100.0       100.0       100.0       100.0       100.0       100.0       100.0       100.0    
        100.0       100.0       100.0       100.0       100.0       100.0       100.0       100.0       100.0       100.0    
        100.0       100.0       100.0       100.0       100.0       100.0       100.0       100.0       100.0       100.0    
        100.0       100.0       100.0       100.0       100.0       100.0       100.0       100.0       100.0       100.0    
        100.0    
   2    100.0       100.4       100.6       100.8       100.8       100.9       101.0       101.0       101.0       101.1    
        101.1       101.1       101.2       101.2       101.2       101.2       101.2       101.3       101.3       101.3    
        101.3       101.4       101.4       101.4       101.4       101.4       101.5       101.5       101.5       101.6    
        101.6       101.6       101.6       101.7       101.7       101.7       101.8       101.8       101.8       101.9    
        101.9       101.9       101.9       102.0       102.0       102.0       102.1       102.1       102.1       102.1    
        102.1       102.2       102.2       102.2       102.2       102.2       102.2       102.2       102.2       102.2    
        102.3       102.3       102.3       102.3       102.3       102.2       102.2       102.2       102.2       102.2    
        102.2       102.2       102.2       102.2       102.2       102.1       102.1       102.1       102.1       102.0    
        102.0       102.0       102.0       101.9       101.9       101.9       101.8       101.8       101.7       101.7    
        101.7       101.6       101.5       101.5       101.4       101.3       101.2       101.1       100.9       100.6    
        100.0    
   3    100.0       100.6       101.0       101.2       101.3       101.5       101.6       101.6       101.7       101.8    
        101.8       101.9       101.9       101.9       102.0       102.0       102.0       102.1       102.1       102.1    
        102.2       102.2       102.2       102.3       102.3       102.4       102.4       102.4       102.5       102.5    
        102.6       102.6       102.7       102.7       102.8       102.8       102.9       103.0       103.0       103.1    
        103.1       103.2       103.2       103.2       103.3       103.3       103.4       103.4       103.4       103.5    
        103.5       103.5       103.6       103.6       103.6       103.6       103.7       103.7       103.7       103.7    
        103.7       103.7       103.7       103.7       103.7       103.7       103.7       103.7       103.7       103.7    
        103.6       103.6       103.6       103.6       103.5       103.5       103.5       103.4       103.4       103.4    
        103.3       103.3       103.2       103.2       103.1       103.1       103.0       102.9       102.9       102.8    
        102.7       102.6       102.5       102.4       102.3       102.1       102.0       101.7       101.4       100.9    
        100.0    
   4    100.0       100.8       101.2       101.5       101.7       101.8       102.0       102.1       102.2       102.2    
        102.3       102.4       102.4       102.5       102.5       102.5       102.6       102.6       102.7       102.7    
        102.8       102.8       102.9       102.9       103.0       103.0       103.1       103.1       103.2       103.2    
        103.3       103.4       103.4       103.5       103.6       103.6       103.7       103.8       103.8       103.9    
        104.0       104.0       104.1       104.2       104.2       104.3       104.3       104.4       104.4       104.5    
        104.5       104.5       104.6       104.6       104.6       104.7       104.7       104.7       104.7       104.7    
        104.7       104.7       104.7       104.7       104.7       104.7       104.7       104.7       104.7       104.7    
        104.7       104.6       104.6       104.6       104.5       104.5       104.5       104.4       104.4       104.3    
        104.2       104.2       104.1       104.1       104.0       103.9       103.8       103.7       103.7       103.6    
        103.4       103.3       103.2       103.1       102.9       102.7       102.5       102.2       101.7       101.1    
        100.0    
   5    100.0       100.8       101.3       101.7       101.9       102.1       102.3       102.4       102.5       102.6    
        102.7       102.7       102.8       102.8       102.9       103.0       103.0       103.1       103.1       103.2    
        103.2       103.3       103.3       103.4       103.4       103.5       103.5       103.6       103.7       103.8    
        103.8       103.9       104.0       104.1       104.1       104.2       104.3       104.4       104.5       104.6    
        104.6       104.7       104.8       104.9       104.9       105.0       105.0       105.1       105.2       105.2    
        105.3       105.3       105.3       105.4       105.4       105.4       105.5       105.5       105.5       105.5    
        105.5       105.5       105.6       105.6       105.5       105.5       105.5       105.5       105.5       105.5    
        105.4       105.4       105.4       105.3       105.3       105.3       105.2       105.1       105.1       105.0    
        105.0       104.9       104.8       104.7       104.7       104.6       104.5       104.4       104.3       104.1    
        104.0       103.9       103.7       103.6       103.4       103.1       102.8       102.5       102.0       101.2    
        100.0    
   6    100.0       100.9       101.5       101.8       102.1       102.3       102.5       102.6       102.8       102.9    
        102.9       103.0       103.1       103.2       103.2       103.3       103.3       103.4       103.4       103.5    
        103.5       103.6       103.7       103.7       103.8       103.9       103.9       104.0       104.1       104.2    
        104.3       104.3       104.4       104.5       104.6       104.7       104.8       104.9       105.0       105.1    
        105.2       105.3       105.3       105.4       105.5       105.6       105.6       105.7       105.8       105.8    
        105.9       105.9       106.0       106.0       106.1       106.1       106.1       106.1       106.2       106.2    
        106.2       106.2       106.2       106.2       106.2       106.2       106.2       106.2       106.1       106.1    
        106.1       106.1       106.0       106.0       105.9       105.9       105.8       105.8       105.7       105.6    
        105.5       105.5       105.4       105.3       105.2       105.1       105.0       104.9       104.8       104.6    
        104.5       104.3       104.1       103.9       103.7       103.5       103.1       102.7       102.1       101.3    
        100.0    
   7    100.0       101.0       101.6       102.0       102.3       102.5       102.7       102.8       103.0       103.1    
        103.2       103.3       103.3       103.4       103.5       103.5       103.6       103.6       103.7       103.8    
        103.8       103.9       103.9       104.0       104.1       104.2       104.2       104.3       104.4       104.5    
        104.6       104.7       104.8       104.9       105.0       105.1       105.2       105.3       105.4       105.5    
        105.6       105.7       105.8       105.9       106.0       106.1       106.1       106.2       106.3       106.3    
        106.4       106.5       106.5       106.6       106.6       106.6       106.7       106.7       106.7       106.7    
        106.8       106.8       106.8       106.8       106.8       106.8       106.7       106.7       106.7       106.7    
        106.6       106.6       106.6       106.5       106.5       106.4       106.3       106.3       106.2       106.1    
        106.0       106.0       105.9       105.8       105.7       105.5       105.4       105.3       105.2       105.0    
        104.9       104.7       104.5       104.3       104.0       103.7       103.4       102.9       102.3       101.4    
        100.0    
   8    100.0       101.0       101.6       102.1       102.4       102.6       102.8       103.0       103.1       103.3    
        103.4       103.5       103.5       103.6       103.7       103.7       103.8       103.9       103.9       104.0    
        104.0       104.1       104.2       104.2       104.3       104.4       104.5       104.6       104.7       104.8    
        104.9       105.0       105.1       105.2       105.3       105.4       105.6       105.7       105.8       105.9    
        106.0       106.1       106.2       106.3       106.4       106.5       106.6       106.7       106.7       106.8    
        106.9       106.9       107.0       107.0       107.1       107.1       107.2       107.2       107.2       107.2    
        107.2       107.3       107.3       107.3       107.2       107.2       107.2       107.2       107.2       107.1    
        107.1       107.1       107.0       107.0       106.9       106.9       106.8       106.7       106.6       106.6    
        106.5       106.4       106.3       106.2       106.1       105.9       105.8       105.7       105.5       105.4    
        105.2       105.0       104.8       104.5       104.3       103.9       103.6       103.1       102.4       101.5    
        100.0    
   9    100.0       101.0       101.7       102.2       102.5       102.8       103.0       103.1       103.3       103.4    
        103.5       103.6       103.7       103.8       103.8       103.9       104.0       104.0       104.1       104.2    
        104.2       104.3       104.4       104.4       104.5       104.6       104.7       104.8       104.9       105.0    
        105.1       105.2       105.4       105.5       105.6       105.7       105.9       106.0       106.1       106.2    
        106.3       106.5       106.6       106.7       106.8       106.9       107.0       107.0       107.1       107.2    
        107.3       107.3       107.4       107.5       107.5       107.5       107.6       107.6       107.6       107.7    
        107.7       107.7       107.7       107.7       107.7       107.7       107.7       107.6       107.6       107.6    
        107.5       107.5       107.4       107.4       107.3       107.3       107.2       107.1       107.0       106.9    
        106.8       106.7       106.6       106.5       106.4       106.3       106.1       106.0       105.8       105.7    
        105.5       105.3       105.0       104.8       104.5       104.1       103.7       103.2       102.5       101.5    
        100.0    
  10    100.0       101.1       101.8       102.2       102.6       102.9       103.1       103.3       103.4       103.5    
        103.7       103.8       103.8       103.9       104.0       104.1       104.1       104.2       104.2       104.3    
        104.4       104.4       104.5       104.6       104.7       104.8       104.9       105.0       105.1       105.2    
        105.3       105.4       105.6       105.7       105.8       106.0       106.1       106.2       106.4       106.5    
        106.6       106.8       106.9       107.0       107.1       107.2       107.3       107.4       107.5       107.6    
        107.6       107.7       107.8       107.8       107.9       107.9       108.0       108.0       108.0       108.1    
        108.1       108.1       108.1       108.1       108.1       108.1       108.1       108.0       108.0       108.0    
        107.9       107.9       107.8       107.8       107.7       107.6       107.6       107.5       107.4       107.3    
        107.2       107.1       107.0       106.9       106.7       106.6       106.4       106.3       106.1       105.9    
        105.7       105.5       105.3       105.0       104.7       104.3       103.9       103.3       102.6       101.6    
        100.0    
  11    100.0       101.1       101.8       102.3       102.7       102.9       103.2       103.4       103.5       103.7    
        103.8       103.9       104.0       104.0       104.1       104.2       104.2       104.3       104.4       104.4    
        104.5       104.6       104.6       104.7       104.8       104.9       105.0       105.1       105.2       105.4    
        105.5       105.6       105.8       105.9       106.1       106.2       106.3       106.5       106.6       106.8    
        106.9       107.0       107.2       107.3       107.4       107.5       107.6       107.7       107.8       107.9    
        108.0       108.1       108.1       108.2       108.2       108.3       108.3       108.4       108.4       108.4    
        108.4       108.4       108.5       108.5       108.4       108.4       108.4       108.4       108.4       108.3    
        108.3       108.2       108.2       108.1       108.0       108.0       107.9       107.8       107.7       107.6    
        107.5       107.4       107.3       107.1       107.0       106.9       106.7       106.5       106.4       106.2    
        106.0       105.7       105.5       105.2       104.9       104.5       104.0       103.5       102.7       101.7    
        100.0    
  12    100.0       101.1       101.9       102.4       102.7       103.0       103.3       103.5       103.6       103.8    
        103.9       104.0       104.1       104.1       104.2       104.3       104.3       104.4       104.5       104.5    
        104.6       104.7       104.7       104.8       104.9       105.0       105.1       105.2       105.3       105.5    
        105.6       105.8       105.9       106.1       106.2       106.4       106.6       106.7       106.9       107.0    
        107.2       107.3       107.4       107.6       107.7       107.8       107.9       108.0       108.1       108.2    
        108.3       108.4       108.4       108.5       108.6       108.6       108.7       108.7       108.7       108.8    
        108.8       108.8       108.8       108.8       108.8       108.8       108.8       108.7       108.7       108.7    
        108.6       108.6       108.5       108.4       108.4       108.3       108.2       108.1       108.0       107.9    
        107.8       107.7       107.6       107.4       107.3       107.1       107.0       106.8       106.6       106.4    
        106.2       105.9       105.7       105.4       105.0       104.6       104.2       103.6       102.8       101.7    
        100.0    
  13    100.0       101.2       101.9       102.4       102.8       103.1       103.3       103.5       103.7       103.8    
        104.0       104.1       104.2       104.2       104.3       104.4       104.4       104.5       104.5       104.6    
        104.7       104.7       104.8       104.9       105.0       105.1       105.2       105.3       105.4       105.6    
        105.7       105.9       106.1       106.2       106.4       106.6       106.7       106.9       107.1       107.2    
        107.4       107.5       107.7       107.8       108.0       108.1       108.2       108.3       108.4       108.5    
        108.6       108.7       108.8       108.8       108.9       108.9       109.0       109.0       109.0       109.1    
        109.1       109.1       109.1       109.1       109.1       109.1       109.1       109.0       109.0       109.0    
        108.9       108.9       108.8       108.7       108.7       108.6       108.5       108.4       108.3       108.2    
        108.1       108.0       107.8       107.7       107.5       107.4       107.2       107.0       106.8       106.6    
        106.4       106.1       105.9       105.5       105.2       104.8       104.3       103.7       102.9       101.8    
        100.0    
  14    100.0       101.2       101.9       102.5       102.8       103.2       103.4       103.6       103.8       103.9    
        104.0       104.1       104.2       104.3       104.4       104.4       104.5       104.5       104.6       104.7    
        104.7       104.8       104.8       104.9       105.0       105.1       105.2       105.4       105.5       105.7    
        105.8       106.0       106.2       106.4       106.5       106.7       106.9       107.1       107.3       107.4    
        107.6       107.8       107.9       108.1       108.2       108.3       108.5       108.6       108.7       108.8    
        108.9       109.0       109.0       109.1       109.2       109.2       109.3       109.3       109.3       109.4    
        109.4       109.4       109.4       109.4       109.4       109.4       109.4       109.3       109.3       109.3    
        109.2       109.2       109.1       109.0       108.9       108.9       108.8       108.7       108.6       108.5    
        108.3       108.2       108.1       107.9       107.8       107.6       107.4       107.2       107.0       106.8    
        106.6       106.3       106.0       105.7       105.3       104.9       104.4       103.8       103.0       101.8    
        100.0    
  15    100.0       101.2       102.0       102.5       102.9       103.2       103.5       103.7       103.8       104.0    
        104.1       104.2       104.3       104.4       104.4       104.5       104.6       104.6       104.6       104.7    
        104.7       104.8       104.9       105.0       105.0       105.2       105.3       105.4       105.6       105.7    
        105.9       106.1       106.3       106.5       106.7       106.9       107.1       107.3       107.4       107.6    
        107.8       108.0       108.1       108.3       108.4       108.6       108.7       108.8       108.9       109.0    
        109.1       109.2       109.3       109.4       109.4       109.5       109.6       109.6       109.6       109.7    
        109.7       109.7       109.7       109.7       109.7       109.7       109.6       109.6       109.6       109.5    
        109.5       109.4       109.4       109.3       109.2       109.1       109.0       108.9       108.8       108.7    
        108.6       108.4       108.3       108.1       108.0       107.8       107.6       107.4       107.2       107.0    
        106.7       106.5       106.2       105.8       105.5       105.0       104.5       103.9       103.0       101.8    
        100.0    
  16    100.0       101.2       102.0       102.5       103.0       103.3       103.5       103.7       103.9       104.1    
        104.2       104.3       104.4       104.4       104.5       104.6       104.6       104.6       104.7       104.7    
        104.8       104.8       104.9       105.0       105.1       105.2       105.3       105.4       105.6       105.8    
        106.0       106.2       106.4       106.6       106.8       107.0       107.2       107.4       107.6       107.8    
        108.0       108.2       108.3       108.5       108.7       108.8       108.9       109.1       109.2       109.3    
        109.4       109.5       109.6       109.6       109.7       109.8       109.8       109.9       109.9       109.9    
        109.9       110.0       110.0       110.0       110.0       109.9       109.9       109.9       109.8       109.8    
        109.7       109.7       109.6       109.5       109.5       109.4       109.3       109.2       109.1       108.9    
        108.8       108.7       108.5       108.4       108.2       108.0       107.8       107.6       107.4       107.2    
        106.9       106.6       106.3       106.0       105.6       105.2       104.6       104.0       103.1       101.9    
        100.0    
  17    100.0       101.2       102.0       102.6       103.0       103.3       103.6       103.8       104.0       104.1    
        104.2       104.3       104.4       104.5       104.6       104.6       104.6       104.7       104.7       104.7    
        104.8       104.8       104.9       105.0       105.1       105.2       105.3       105.5       105.6       105.8    
        106.0       106.2       106.4       106.7       106.9       107.1       107.3       107.6       107.8       108.0    
        108.2       108.4       108.5       108.7       108.9       109.0       109.2       109.3       109.4       109.5    
        109.6       109.7       109.8       109.9       110.0       110.0       110.1       110.1       110.2       110.2    
        110.2       110.2       110.2       110.2       110.2       110.2       110.2       110.1       110.1       110.0    
        110.0       109.9       109.9       109.8       109.7       109.6       109.5       109.4       109.3       109.2    
        109.0       108.9       108.7       108.6       108.4       108.2       108.0       107.8       107.6       107.3    
        107.1       106.8       106.5       106.1       105.7       105.3       104.7       104.0       103.2       101.9    
        100.0    
  18    100.0       101.3       102.1       102.6       103.1       103.4       103.6       103.9       104.0       104.2    
        104.3       104.4       104.5       104.5       104.6       104.6       104.7       104.7       104.7       104.7    
        104.8       104.8       104.9       105.0       105.0       105.2       105.3       105.5       105.6       105.8    
        106.1       106.3       106.5       106.8       107.0       107.2       107.5       107.7       107.9       108.1    
        108.3       108.5       108.7       108.9       109.1       109.2       109.4       109.5       109.6       109.8    
        109.9       110.0       110.1       110.1       110.2       110.3       110.3       110.4       110.4       110.4    
        110.5       110.5       110.5       110.5       110.5       110.4       110.4       110.4       110.3       110.3    
        110.2       110.2       110.1       110.0       109.9       109.8       109.7       109.6       109.5       109.4    
        109.2       109.1       108.9       108.8       108.6       108.4       108.2       108.0       107.7       107.5    
        107.2       106.9       106.6       106.2       105.8       105.4       104.8       104.1       103.2       102.0    
        100.0    
  19    100.0       101.3       102.1       102.7       103.1       103.4       103.7       103.9       104.1       104.2    
        104.4       104.5       104.5       104.6       104.6       104.7       104.7       104.7       104.7       104.8    
        104.8       104.8       104.9       104.9       105.0       105.2       105.3       105.5       105.7       105.9    
        106.1       106.3       106.6       106.8       107.1       107.3       107.6       107.8       108.1       108.3    
        108.5       108.7       108.9       109.1       109.3       109.4       109.6       109.7       109.9       110.0    
        110.1       110.2       110.3       110.4       110.4       110.5       110.6       110.6       110.6       110.7    
        110.7       110.7       110.7       110.7       110.7       110.7       110.6       110.6       110.6       110.5    
        110.5       110.4       110.3       110.2       110.1       110.0       109.9       109.8       109.7       109.6    
        109.4       109.3       109.1       108.9       108.8       108.6       108.4       108.1       107.9       107.6    
        107.4       107.1       106.7       106.4       105.9       105.5       104.9       104.2       103.3       102.0    
        100.0    
  20    100.0       101.3       102.1       102.7       103.2       103.5       103.8       104.0       104.2       104.3    
        104.4       104.5       104.6       104.7       104.7       104.7       104.7       104.7       104.8       104.8    
        104.8       104.8       104.9       104.9       105.0       105.1       105.3       105.5       105.7       105.9    
        106.1       106.4       106.6       106.9       107.2       107.5       107.7       108.0       108.2       108.4    
        108.7       108.9       109.1       109.3       109.5       109.6       109.8       109.9       110.1       110.2    
        110.3       110.4       110.5       110.6       110.7       110.7       110.8       110.8       110.9       110.9    
        110.9       110.9       110.9       110.9       110.9       110.9       110.9       110.8       110.8       110.7    
        110.7       110.6       110.5       110.4       110.4       110.2       110.1       110.0       109.9       109.8    
        109.6       109.5       109.3       109.1       108.9       108.7       108.5       108.3       108.0       107.8    
        107.5       107.2       106.9       106.5       106.1       105.6       105.0       104.3       103.3       102.0    
        100.0    
  21    100.0       101.3       102.2       102.8       103.2       103.5       103.8       104.0       104.2       104.4    
        104.5       104.6       104.7       104.7       104.7       104.8       104.8       104.8       104.8       104.8    
        104.8       104.8       104.9       104.9       105.0       105.1       105.3       105.5       105.7       105.9    
        106.2       106.4       106.7       107.0       107.3       107.6       107.8       108.1       108.4       108.6    
        108.8       109.1       109.3       109.5       109.7       109.8       110.0       110.1       110.3       110.4    
        110.5       110.6       110.7       110.8       110.9       110.9       111.0       111.1       111.1       111.1    
        111.1       111.2       111.2       111.2       111.1       111.1       111.1       111.1       111.0       110.9    
        110.9       110.8       110.7       110.6       110.6       110.4       110.3       110.2       110.1       109.9    
        109.8       109.6       109.5       109.3       109.1       108.9       108.7       108.4       108.2       107.9    
        107.6       107.3       107.0       106.6       106.2       105.7       105.1       104.3       103.4       102.1    
        100.0    
  22    100.0       101.4       102.2       102.8       103.3       103.6       103.9       104.1       104.3       104.4    
        104.6       104.7       104.7       104.8       104.8       104.8       104.8       104.8       104.8       104.8    
        104.8       104.8       104.9       104.9       105.0       105.1       105.3       105.5       105.7       106.0    
        106.2       106.5       106.8       107.1       107.4       107.7       108.0       108.2       108.5       108.8    
        109.0       109.2       109.4       109.6       109.8       110.0       110.2       110.3       110.5       110.6    
        110.7       110.8       110.9       111.0       111.1       111.2       111.2       111.3       111.3       111.3    
        111.4       111.4       111.4       111.4       111.4       111.3       111.3       111.3       111.2       111.2    
        111.1       111.0       110.9       110.8       110.7       110.6       110.5       110.4       110.3       110.1    
        110.0       109.8       109.6       109.4       109.2       109.0       108.8       108.6       108.3       108.1    
        107.8       107.4       107.1       106.7       106.3       105.7       105.1       104.4       103.4       102.1    
        100.0    
  23    100.0       101.4       102.2       102.9       103.3       103.7       103.9       104.2       104.4       104.5    
        104.6       104.7       104.8       104.8       104.9       104.9       104.9       104.9       104.9       104.9    
        104.9       104.9       104.9       104.9       105.0       105.2       105.3       105.5       105.8       106.0    
        106.3       106.6       106.9       107.2       107.5       107.8       108.1       108.4       108.7       108.9    
        109.2       109.4       109.6       109.8       110.0       110.2       110.4       110.5       110.7       110.8    
        110.9       111.0       111.1       111.2       111.3       111.4       111.4       111.5       111.5       111.5    
        111.6       111.6       111.6       111.6       111.6       111.5       111.5       111.5       111.4       111.3    
        111.3       111.2       111.1       111.0       110.9       110.8       110.7       110.6       110.4       110.3    
        110.1       110.0       109.8       109.6       109.4       109.2       109.0       108.7       108.5       108.2    
        107.9       107.6       107.2       106.8       106.3       105.8       105.2       104.5       103.5       102.1    
        100.0    
  24    100.0       101.4       102.3       102.9       103.4       103.7       104.0       104.2       104.4       104.6    
        104.7       104.8       104.9       104.9       105.0       105.0       105.0       105.0       104.9       104.9    
        104.9       104.9       104.9       105.0       105.1       105.2       105.4       105.6       105.8       106.1    
        106.4       106.7       107.0       107.3       107.6       107.9       108.2       108.5       108.8       109.1    
        109.3       109.6       109.8       110.0       110.2       110.4       110.6       110.7       110.9       111.0    
        111.1       111.2       111.3       111.4       111.5       111.6       111.6       111.7       111.7       111.7    
        111.8       111.8       111.8       111.8       111.7       111.7       111.7       111.6       111.6       111.5    
        111.5       111.4       111.3       111.2       111.1       111.0       110.9       110.7       110.6       110.4    
        110.3       110.1       109.9       109.7       109.5       109.3       109.1       108.8       108.6       108.3    
        108.0       107.7       107.3       106.9       106.4       105.9       105.3       104.5       103.5       102.2    
        100.0    
  25    100.0       101.4       102.3       103.0       103.4       103.8       104.1       104.3       104.5       104.7    
        104.8       104.9       105.0       105.0       105.0       105.1       105.1       105.0       105.0       105.0    
        105.0       105.0       105.0       105.1       105.2       105.3       105.5       105.7       105.9       106.2    
        106.5       106.8       107.1       107.5       107.8       108.1       108.4       108.7       109.0       109.3    
        109.5       109.8       110.0       110.2       110.4       110.6       110.7       110.9       111.1       111.2    
        111.3       111.4       111.5       111.6       111.7       111.8       111.8       111.9       111.9       111.9    
        112.0       112.0       112.0       112.0       111.9       111.9       111.9       111.8       111.8       111.7    
        111.6       111.6       111.5       111.4       111.3       111.2       111.0       110.9       110.8       110.6    
        110.4       110.3       110.1       109.9       109.7       109.5       109.2       109.0       108.7       108.4    
        108.1       107.8       107.4       107.0       106.5       106.0       105.4       104.6       103.6       102.2    
        100.0    
  26    100.0       101.4       102.4       103.0       103.5       103.9       104.2       104.4       104.6       104.8    
        104.9       105.0       105.1       105.1       105.2       105.2       105.2       105.2       105.2       105.1    
        105.1       105.1       105.2       105.2       105.3       105.4       105.6       105.8       106.1       106.3    
        106.6       107.0       107.3       107.6       107.9       108.3       108.6       108.9       109.2       109.4    
        109.7       109.9       110.2       110.4       110.6       110.8       110.9       111.1       111.2       111.4    
        111.5       111.6       111.7       111.8       111.9       111.9       112.0       112.1       112.1       112.1    
        112.1       112.1       112.1       112.1       112.1       112.1       112.1       112.0       112.0       111.9    
        111.8       111.7       111.6       111.5       111.4       111.3       111.2       111.1       110.9       110.8    
        110.6       110.4       110.2       110.0       109.8       109.6       109.3       109.1       108.8       108.5    
        108.2       107.9       107.5       107.1       106.6       106.1       105.4       104.6       103.6       102.2    
        100.0    
  27    100.0       101.5       102.4       103.1       103.5       103.9       104.2       104.5       104.7       104.9    
        105.0       105.1       105.2       105.2       105.3       105.3       105.3       105.3       105.3       105.3    
        105.3       105.3       105.3       105.4       105.5       105.6       105.8       106.0       106.2       106.5    
        106.8       107.1       107.5       107.8       108.1       108.4       108.8       109.1       109.3       109.6    
        109.9       110.1       110.3       110.6       110.8       110.9       111.1       111.3       111.4       111.6    
        111.7       111.8       111.9       112.0       112.1       112.1       112.2       112.2       112.3       112.3    
        112.3       112.3       112.3       112.3       112.3       112.3       112.2       112.2       112.1       112.1    
        112.0       111.9       111.8       111.7       111.6       111.5       111.3       111.2       111.1       110.9    
        110.7       110.5       110.4       110.1       109.9       109.7       109.5       109.2       108.9       108.6    
        108.3       108.0       107.6       107.2       106.7       106.1       105.5       104.7       103.7       102.2    
        100.0    
  28    100.0       101.5       102.4       103.1       103.6       104.0       104.3       104.6       104.8       105.0    
        105.1       105.2       105.3       105.4       105.4       105.4       105.5       105.5       105.5       105.5    
        105.5       105.5       105.5       105.6       105.7       105.8       106.0       106.2       106.5       106.7    
        107.0       107.4       107.7       108.0       108.3       108.6       108.9       109.2       109.5       109.8    
        110.1       110.3       110.5       110.7       110.9       111.1       111.3       111.5       111.6       111.7    
        111.9       112.0       112.1       112.2       112.2       112.3       112.4       112.4       112.4       112.5    
        112.5       112.5       112.5       112.5       112.5       112.4       112.4       112.3       112.3       112.2    
        112.1       112.1       112.0       111.9       111.7       111.6       111.5       111.3       111.2       111.0    
        110.9       110.7       110.5       110.3       110.1       109.8       109.6       109.3       109.0       108.7    
        108.4       108.1       107.7       107.2       106.8       106.2       105.6       104.8       103.7       102.3    
        100.0    
  29    100.0       101.5       102.5       103.2       103.7       104.1       104.4       104.7       104.9       105.1    
        105.2       105.3       105.4       105.5       105.6       105.6       105.6       105.6       105.7       105.7    
        105.7       105.7       105.8       105.8       105.9       106.1       106.2       106.5       106.7       107.0    
        107.3       107.6       107.9       108.2       108.5       108.8       109.2       109.4       109.7       110.0    
        110.2       110.5       110.7       110.9       111.1       111.3       111.5       111.6       111.8       111.9    
        112.0       112.1       112.2       112.3       112.4       112.5       112.5       112.6       112.6       112.6    
        112.7       112.7       112.7       112.6       112.6       112.6       112.5       112.5       112.4       112.4    
        112.3       112.2       112.1       112.0       111.9       111.8       111.6       111.5       111.3       111.2    
        111.0       110.8       110.6       110.4       110.2       109.9       109.7       109.4       109.1       108.8    
        108.5       108.1       107.8       107.3       106.8       106.3       105.6       104.8       103.8       102.3    
        100.0    
  30    100.0       101.6       102.5       103.2       103.8       104.2       104.5       104.8       105.0       105.2    
        105.4       105.5       105.6       105.7       105.7       105.8       105.8       105.8       105.9       105.9    
        105.9       106.0       106.0       106.1       106.2       106.3       106.5       106.7       107.0       107.2    
        107.5       107.8       108.1       108.5       108.8       109.1       109.4       109.7       109.9       110.2    
        110.4       110.7       110.9       111.1       111.3       111.5       111.7       111.8       112.0       112.1    
        112.2       112.3       112.4       112.5       112.6       112.6       112.7       112.7       112.8       112.8    
        112.8       112.8       112.8       112.8       112.8       112.7       112.7       112.6       112.6       112.5    
        112.4       112.3       112.2       112.1       112.0       111.9       111.8       111.6       111.5       111.3    
        111.1       110.9       110.7       110.5       110.3       110.0       109.8       109.5       109.2       108.9    
        108.6       108.2       107.8       107.4       106.9       106.3       105.7       104.8       103.8       102.3    
        100.0    
  31    100.0       101.6       102.6       103.3       103.8       104.3       104.6       104.9       105.1       105.3    
        105.5       105.6       105.7       105.8       105.9       106.0       106.0       106.1       106.1       106.1    
        106.2       106.2       106.3       106.4       106.5       106.6       106.8       107.0       107.3       107.5    
        107.8       108.1       108.4       108.7       109.0       109.3       109.6       109.9       110.1       110.4    
        110.6       110.9       111.1       111.3       111.5       111.7       111.8       112.0       112.1       112.3    
        112.4       112.5       112.6       112.7       112.7       112.8       112.9       112.9       112.9       113.0    
        113.0       113.0       113.0       113.0       112.9       112.9       112.8       112.8       112.7       112.7    
        112.6       112.5       112.4       112.3       112.2       112.0       111.9       111.7       111.6       111.4    
        111.2       111.0       110.8       110.6       110.4       110.1       109.9       109.6       109.3       109.0    
        108.7       108.3       107.9       107.5       107.0       106.4       105.7       104.9       103.8       102.3    
        100.0    
  32    100.0       101.6       102.6       103.4       103.9       104.3       104.7       105.0       105.2       105.4    
        105.6       105.8       105.9       106.0       106.1       106.2       106.2       106.3       106.3       106.4    
        106.4       106.5       106.6       106.7       106.8       107.0       107.1       107.4       107.6       107.8    
        108.1       108.4       108.7       109.0       109.3       109.5       109.8       110.1       110.4       110.6    
        110.8       111.1       111.3       111.5       111.7       111.8       112.0       112.2       112.3       112.4    
        112.5       112.7       112.7       112.8       112.9       113.0       113.0       113.1       113.1       113.1    
        113.1       113.1       113.1       113.1       113.1       113.0       113.0       112.9       112.9       112.8    
        112.7       112.6       112.5       112.4       112.3       112.1       112.0       111.9       111.7       111.5    
        111.3       111.1       110.9       110.7       110.5       110.2       110.0       109.7       109.4       109.1    
        108.7       108.4       108.0       107.5       107.0       106.5       105.8       104.9       103.9       102.3    
        100.0    
  33    100.0       101.6       102.7       103.4       104.0       104.4       104.8       105.1       105.4       105.6    
        105.8       105.9       106.1       106.2       106.3       106.4       106.4       106.5       106.6       106.6    
        106.7       106.8       106.9       107.0       107.1       107.3       107.5       107.7       107.9       108.1    
        108.4       108.7       108.9       109.2       109.5       109.8       110.1       110.3       110.6       110.8    
        111.0       111.3       111.5       111.7       111.9       112.0       112.2       112.3       112.5       112.6    
        112.7       112.8       112.9       113.0       113.1       113.1       113.2       113.2       113.2       113.3    
        113.3       113.3       113.3       113.2       113.2       113.2       113.1       113.1       113.0       112.9    
        112.8       112.7       112.6       112.5       112.4       112.3       112.1       112.0       111.8       111.6    
        111.4       111.2       111.0       110.8       110.6       110.3       110.1       109.8       109.5       109.2    
        108.8       108.5       108.0       107.6       107.1       106.5       105.8       105.0       103.9       102.4    
        100.0    
  34    100.0       101.7       102.7       103.5       104.1       104.5       104.9       105.2       105.5       105.7    
        105.9       106.1       106.2       106.4       106.5       106.6       106.7       106.8       106.8       106.9    
        107.0       107.1       107.2       107.3       107.5       107.6       107.8       108.0       108.2       108.5    
        108.7       109.0       109.2       109.5       109.8       110.0       110.3       110.5       110.8       111.0    
        111.2       111.5       111.7       111.9       112.0       112.2       112.4       112.5       112.6       112.8    
        112.9       113.0       113.1       113.1       113.2       113.3       113.3       113.4       113.4       113.4    
        113.4       113.4       113.4       113.4       113.3       113.3       113.3       113.2       113.1       113.0    
        113.0       112.9       112.8       112.6       112.5       112.4       112.2       112.1       111.9       111.7    
        111.5       111.3       111.1       110.9       110.7       110.4       110.1       109.9       109.6       109.2    
        108.9       108.5       108.1       107.7       107.1       106.6       105.9       105.0       103.9       102.4    
        100.0    
  35    100.0       101.7       102.8       103.6       104.1       104.6       105.0       105.3       105.6       105.8    
        106.1       106.2       106.4       106.5       106.7       106.8       106.9       107.0       107.1       107.2    
        107.3       107.4       107.5       107.6       107.8       107.9       108.1       108.3       108.5       108.8    
        109.0       109.3       109.5       109.8       110.0       110.3       110.5       110.8       111.0       111.2    
        111.4       111.7       111.8       112.0       112.2       112.4       112.5       112.7       112.8       112.9    
        113.0       113.1       113.2       113.3       113.4       113.4       113.5       113.5       113.5       113.5    
        113.5       113.5       113.5       113.5       113.5       113.4       113.4       113.3       113.2       113.2    
        113.1       113.0       112.9       112.7       112.6       112.5       112.3       112.2       112.0       111.8    
        111.6       111.4       111.2       111.0       110.8       110.5       110.2       109.9       109.6       109.3    
        109.0       108.6       108.2       107.7       107.2       106.6       105.9       105.1       103.9       102.4    
        100.0    
  36    100.0       101.7       102.8       103.6       104.2       104.7       105.1       105.4       105.7       106.0    
        106.2       106.4       106.6       106.7       106.9       107.0       107.1       107.2       107.3       107.5    
        107.6       107.7       107.8       107.9       108.1       108.3       108.4       108.6       108.8       109.1    
        109.3       109.5       109.8       110.0       110.3       110.5       110.8       111.0       111.2       111.4    
        111.6       111.8       112.0       112.2       112.4       112.5       112.7       112.8       113.0       113.1    
        113.2       113.3       113.4       113.4       113.5       113.5       113.6       113.6       113.6       113.7    
        113.7       113.7       113.6       113.6       113.6       113.5       113.5       113.4       113.4       113.3    
        113.2       113.1       113.0       112.9       112.7       112.6       112.4       112.3       112.1       111.9    
        111.7       111.5       111.3       111.1       110.8       110.6       110.3       110.0       109.7       109.4    
        109.0       108.6       108.2       107.8       107.2       106.6       105.9       105.1       104.0       102.4    
        100.0    
  37    100.0       101.8       102.9       103.7       104.3       104.8       105.2       105.6       105.9       106.1    
        106.3       106.6       106.7       106.9       107.1       107.2       107.3       107.5       107.6       107.7    
        107.8       108.0       108.1       108.2       108.4       108.6       108.8       108.9       109.2       109.4    
        109.6       109.8       110.1       110.3       110.5       110.8       111.0       111.2       111.4       111.6    
        111.8       112.0       112.2       112.4       112.6       112.7       112.8       113.0       113.1       113.2    
        113.3       113.4       113.5       113.6       113.6       113.7       113.7       113.7       113.8       113.8    
        113.8       113.8       113.8       113.7       113.7       113.7       113.6       113.5       113.5       113.4    
        113.3       113.2       113.1       112.9       112.8       112.7       112.5       112.4       112.2       112.0    
        111.8       111.6       111.4       111.2       110.9       110.6       110.4       110.1       109.8       109.4    
        109.1       108.7       108.3       107.8       107.3       106.7       106.0       105.1       104.0       102.4    
        100.0    
  38    100.0       101.8       103.0       103.8       104.4       104.9       105.3       105.7       106.0       106.2    
        106.5       106.7       106.9       107.1       107.3       107.4       107.6       107.7       107.8       108.0    
        108.1       108.2       108.4       108.5       108.7       108.9       109.1       109.2       109.4       109.7    
        109.9       110.1       110.3       110.5       110.8       111.0       111.2       111.4       111.6       111.8    
        112.0       112.2       112.4       112.6       112.7       112.9       113.0       113.1       113.3       113.4    
        113.5       113.5       113.6       113.7       113.8       113.8       113.8       113.9       113.9       113.9    
        113.9       113.9       113.9       113.8       113.8       113.8       113.7       113.6       113.6       113.5    
        113.4       113.3       113.2       113.0       112.9       112.8       112.6       112.4       112.3       112.1    
        111.9       111.7       111.5       111.2       111.0       110.7       110.4       110.1       109.8       109.5    
        109.1       108.8       108.3       107.9       107.3       106.7       106.0       105.1       104.0       102.4    
        100.0    
  39    100.0       101.8       103.0       103.8       104.5       105.0       105.4       105.8       106.1       106.4    
        106.6       106.9       107.1       107.3       107.4       107.6       107.8       107.9       108.1       108.2    
        108.4       108.5       108.7       108.8       109.0       109.2       109.3       109.5       109.7       109.9    
        110.1       110.4       110.6       110.8       111.0       111.2       111.4       111.6       111.8       112.0    
        112.2       112.4       112.6       112.7       112.9       113.0       113.2       113.3       113.4       113.5    
        113.6       113.7       113.8       113.8       113.9       113.9       114.0       114.0       114.0       114.0    
        114.0       114.0       114.0       114.0       113.9       113.9       113.8       113.7       113.7       113.6    
        113.5       113.4       113.3       113.1       113.0       112.8       112.7       112.5       112.3       112.2    
        112.0       111.7       111.5       111.3       111.0       110.8       110.5       110.2       109.9       109.6    
        109.2       108.8       108.4       107.9       107.4       106.8       106.1       105.2       104.0       102.5    
        100.0    
  40    100.0       101.9       103.1       103.9       104.6       105.1       105.5       105.9       106.2       106.5    
        106.8       107.0       107.2       107.4       107.6       107.8       108.0       108.1       108.3       108.4    
        108.6       108.8       108.9       109.1       109.3       109.4       109.6       109.8       110.0       110.2    
        110.4       110.6       110.8       111.0       111.2       111.4       111.6       111.8       112.0       112.2    
        112.4       112.6       112.7       112.9       113.0       113.2       113.3       113.4       113.5       113.6    
        113.7       113.8       113.9       113.9       114.0       114.0       114.1       114.1       114.1       114.1    
        114.1       114.1       114.1       114.0       114.0       114.0       113.9       113.8       113.7       113.7    
        113.6       113.5       113.3       113.2       113.1       112.9       112.8       112.6       112.4       112.2    
        112.0       111.8       111.6       111.4       111.1       110.8       110.6       110.3       109.9       109.6    
        109.2       108.8       108.4       107.9       107.4       106.8       106.1       105.2       104.1       102.5    
        100.0    
  41    100.0       101.9       103.1       104.0       104.6       105.2       105.6       106.0       106.3       106.6    
        106.9       107.2       107.4       107.6       107.8       108.0       108.2       108.3       108.5       108.7    
        108.8       109.0       109.2       109.3       109.5       109.7       109.9       110.1       110.2       110.4    
        110.6       110.8       111.0       111.2       111.4       111.6       111.8       112.0       112.2       112.4    
        112.6       112.7       112.9       113.0       113.2       113.3       113.4       113.6       113.7       113.8    
        113.8       113.9       114.0       114.1       114.1       114.1       114.2       114.2       114.2       114.2    
        114.2       114.2       114.2       114.1       114.1       114.0       114.0       113.9       113.8       113.7    
        113.6       113.5       113.4       113.3       113.1       113.0       112.8       112.7       112.5       112.3    
        112.1       111.9       111.7       111.4       111.2       110.9       110.6       110.3       110.0       109.7    
        109.3       108.9       108.5       108.0       107.4       106.8       106.1       105.2       104.1       102.5    
        100.0    
  42    100.0       101.9       103.2       104.0       104.7       105.3       105.7       106.1       106.5       106.8    
        107.0       107.3       107.5       107.8       108.0       108.2       108.4       108.5       108.7       108.9    
        109.1       109.2       109.4       109.6       109.8       109.9       110.1       110.3       110.5       110.7    
        110.9       111.1       111.3       111.5       111.7       111.8       112.0       112.2       112.4       112.6    
        112.7       112.9       113.0       113.2       113.3       113.5       113.6       113.7       113.8       113.9    
        114.0       114.0       114.1       114.2       114.2       114.3       114.3       114.3       114.3       114.3    
        114.3       114.3       114.3       114.2       114.2       114.1       114.1       114.0       113.9       113.8    
        113.7       113.6       113.5       113.4       113.2       113.1       112.9       112.7       112.5       112.4    
        112.2       111.9       111.7       111.5       111.2       110.9       110.7       110.4       110.0       109.7    
        109.3       108.9       108.5       108.0       107.5       106.9       106.1       105.2       104.1       102.5    
        100.0    
  43    100.0       101.9       103.2       104.1       104.8       105.3       105.8       106.2       106.6       106.9    
        107.2       107.4       107.7       107.9       108.1       108.3       108.5       108.7       108.9       109.1    
        109.3       109.4       109.6       109.8       110.0       110.2       110.3       110.5       110.7       110.9    
        111.1       111.3       111.5       111.7       111.8       112.0       112.2       112.4       112.6       112.7    
        112.9       113.0       113.2       113.3       113.5       113.6       113.7       113.8       113.9       114.0    
        114.1       114.2       114.2       114.3       114.3       114.3       114.4       114.4       114.4       114.4    
        114.4       114.4       114.3       114.3       114.3       114.2       114.1       114.1       114.0       113.9    
        113.8       113.7       113.6       113.4       113.3       113.1       113.0       112.8       112.6       112.4    
        112.2       112.0       111.8       111.5       111.3       111.0       110.7       110.4       110.1       109.7    
        109.4       109.0       108.5       108.0       107.5       106.9       106.2       105.3       104.1       102.5    
        100.0    
  44    100.0       102.0       103.2       104.2       104.9       105.4       105.9       106.3       106.7       107.0    
        107.3       107.6       107.8       108.1       108.3       108.5       108.7       108.9       109.1       109.3    
        109.5       109.6       109.8       110.0       110.2       110.4       110.6       110.7       110.9       111.1    
        111.3       111.5       111.7       111.9       112.0       112.2       112.4       112.6       112.7       112.9    
        113.0       113.2       113.3       113.5       113.6       113.7       113.8       113.9       114.0       114.1    
        114.2       114.3       114.3       114.4       114.4       114.4       114.5       114.5       114.5       114.5    
        114.5       114.5       114.4       114.4       114.3       114.3       114.2       114.1       114.0       114.0    
        113.8       113.7       113.6       113.5       113.3       113.2       113.0       112.8       112.7       112.5    
        112.3       112.0       111.8       111.6       111.3       111.0       110.7       110.4       110.1       109.8    
        109.4       109.0       108.6       108.1       107.5       106.9       106.2       105.3       104.1       102.5    
        100.0    
  45    100.0       102.0       103.3       104.2       104.9       105.5       106.0       106.4       106.8       107.1    
        107.4       107.7       108.0       108.2       108.4       108.7       108.9       109.1       109.3       109.5    
        109.7       109.8       110.0       110.2       110.4       110.6       110.8       110.9       111.1       111.3    
        111.5       111.7       111.9       112.0       112.2       112.4       112.6       112.7       112.9       113.0    
        113.2       113.3       113.5       113.6       113.7       113.8       113.9       114.0       114.1       114.2    
        114.3       114.3       114.4       114.5       114.5       114.5       114.5       114.6       114.6       114.6    
        114.5       114.5       114.5       114.5       114.4       114.3       114.3       114.2       114.1       114.0    
        113.9       113.8       113.7       113.5       113.4       113.2       113.1       112.9       112.7       112.5    
        112.3       112.1       111.8       111.6       111.3       111.1       110.8       110.5       110.1       109.8    
        109.4       109.0       108.6       108.1       107.6       106.9       106.2       105.3       104.1       102.5    
        100.0    
  46    100.0       102.0       103.3       104.3       105.0       105.6       106.1       106.5       106.9       107.2    
        107.5       107.8       108.1       108.3       108.6       108.8       109.0       109.2       109.4       109.6    
        109.8       110.0       110.2       110.4       110.6       110.8       110.9       111.1       111.3       111.5    
        111.7       111.8       112.0       112.2       112.4       112.5       112.7       112.9       113.0       113.2    
        113.3       113.5       113.6       113.7       113.8       113.9       114.0       114.1       114.2       114.3    
        114.4       114.4       114.5       114.5       114.6       114.6       114.6       114.6       114.6       114.6    
        114.6       114.6       114.6       114.5       114.5       114.4       114.3       114.3       114.2       114.1    
        114.0       113.8       113.7       113.6       113.4       113.3       113.1       112.9       112.7       112.5    
        112.3       112.1       111.9       111.6       111.4       111.1       110.8       110.5       110.2       109.8    
        109.5       109.1       108.6       108.1       107.6       107.0       106.2       105.3       104.2       102.5    
        100.0    
  47    100.0       102.1       103.4       104.3       105.0       105.6       106.1       106.6       107.0       107.3    
        107.6       107.9       108.2       108.5       108.7       108.9       109.2       109.4       109.6       109.8    
        110.0       110.2       110.4       110.6       110.7       110.9       111.1       111.3       111.5       111.7    
        111.8       112.0       112.2       112.4       112.5       112.7       112.8       113.0       113.2       113.3    
        113.4       113.6       113.7       113.8       113.9       114.0       114.1       114.2       114.3       114.4    
        114.5       114.5       114.6       114.6       114.6       114.7       114.7       114.7       114.7       114.7    
        114.7       114.6       114.6       114.6       114.5       114.5       114.4       114.3       114.2       114.1    
        114.0       113.9       113.8       113.6       113.5       113.3       113.1       113.0       112.8       112.6    
        112.4       112.1       111.9       111.7       111.4       111.1       110.8       110.5       110.2       109.9    
        109.5       109.1       108.6       108.1       107.6       107.0       106.2       105.3       104.2       102.5    
        100.0    
  48    100.0       102.1       103.4       104.4       105.1       105.7       106.2       106.7       107.0       107.4    
        107.7       108.0       108.3       108.6       108.8       109.1       109.3       109.5       109.7       109.9    
        110.1       110.3       110.5       110.7       110.9       111.1       111.3       111.5       111.6       111.8    
        112.0       112.2       112.3       112.5       112.7       112.8       113.0       113.1       113.3       113.4    
        113.6       113.7       113.8       113.9       114.0       114.1       114.2       114.3       114.4       114.5    
        114.5       114.6       114.6       114.7       114.7       114.7       114.8       114.8       114.8       114.7    
        114.7       114.7       114.7       114.6       114.6       114.5       114.4       114.3       114.3       114.2    
        114.0       113.9       113.8       113.7       113.5       113.3       113.2       113.0       112.8       112.6    
        112.4       112.2       111.9       111.7       111.4       111.2       110.9       110.6       110.2       109.9    
        109.5       109.1       108.6       108.2       107.6       107.0       106.2       105.3       104.2       102.5    
        100.0    
  49    100.0       102.1       103.4       104.4       105.2       105.8       106.3       106.7       107.1       107.5    
        107.8       108.1       108.4       108.7       108.9       109.2       109.4       109.6       109.9       110.1    
        110.3       110.5       110.7       110.9       111.1       111.2       111.4       111.6       111.8       112.0    
        112.1       112.3       112.5       112.6       112.8       113.0       113.1       113.3       113.4       113.5    
        113.7       113.8       113.9       114.0       114.1       114.2       114.3       114.4       114.5       114.5    
        114.6       114.7       114.7       114.7       114.8       114.8       114.8       114.8       114.8       114.8    
        114.8       114.7       114.7       114.7       114.6       114.5       114.5       114.4       114.3       114.2    
        114.1       114.0       113.8       113.7       113.5       113.4       113.2       113.0       112.8       112.6    
        112.4       112.2       112.0       111.7       111.4       111.2       110.9       110.6       110.2       109.9    
        109.5       109.1       108.7       108.2       107.6       107.0       106.3       105.3       104.2       102.5    
        100.0    
  50    100.0       102.1       103.5       104.5       105.2       105.8       106.3       106.8       107.2       107.6    
        107.9       108.2       108.5       108.8       109.0       109.3       109.5       109.8       110.0       110.2    
        110.4       110.6       110.8       111.0       111.2       111.4       111.6       111.7       111.9       112.1    
        112.3       112.4       112.6       112.8       112.9       113.1       113.2       113.4       113.5       113.6    
        113.8       113.9       114.0       114.1       114.2       114.3       114.4       114.5       114.5       114.6    
        114.7       114.7       114.8       114.8       114.8       114.8       114.9       114.9       114.9       114.8    
        114.8       114.8       114.7       114.7       114.6       114.6       114.5       114.4       114.3       114.2    
        114.1       114.0       113.8       113.7       113.6       113.4       113.2       113.0       112.9       112.7    
        112.4       112.2       112.0       111.7       111.5       111.2       110.9       110.6       110.3       109.9    
        109.5       109.1       108.7       108.2       107.6       107.0       106.3       105.4       104.2       102.5    
        100.0    
  51    100.0       102.1       103.5       104.5       105.3       105.9       106.4       106.9       107.3       107.6    
        108.0       108.3       108.6       108.9       109.1       109.4       109.6       109.9       110.1       110.3    
        110.5       110.7       110.9       111.1       111.3       111.5       111.7       111.9       112.0       112.2    
        112.4       112.5       112.7       112.9       113.0       113.2       113.3       113.5       113.6       113.7    
        113.8       114.0       114.1       114.2       114.3       114.4       114.5       114.5       114.6       114.7    
        114.7       114.8       114.8       114.9       114.9       114.9       114.9       114.9       114.9       114.9    
        114.9       114.8       114.8       114.7       114.7       114.6       114.5       114.4       114.3       114.2    
        114.1       114.0       113.9       113.7       113.6       113.4       113.2       113.1       112.9       112.7    
        112.5       112.2       112.0       111.7       111.5       111.2       110.9       110.6       110.3       109.9    
        109.5       109.1       108.7       108.2       107.6       107.0       106.3       105.4       104.2       102.5    
        100.0    
  52    100.0       102.2       103.5       104.5       105.3       105.9       106.5       106.9       107.3       107.7    
        108.1       108.4       108.7       109.0       109.2       109.5       109.7       110.0       110.2       110.4    
        110.6       110.8       111.0       111.2       111.4       111.6       111.8       112.0       112.1       112.3    
        112.5       112.7       112.8       113.0       113.1       113.3       113.4       113.5       113.7       113.8    
        113.9       114.0       114.2       114.3       114.3       114.4       114.5       114.6       114.7       114.7    
        114.8       114.8       114.9       114.9       114.9       114.9       114.9       114.9       114.9       114.9    
        114.9       114.8       114.8       114.7       114.7       114.6       114.5       114.5       114.4       114.3    
        114.1       114.0       113.9       113.7       113.6       113.4       113.3       113.1       112.9       112.7    
        112.5       112.2       112.0       111.7       111.5       111.2       110.9       110.6       110.3       109.9    
        109.5       109.1       108.7       108.2       107.6       107.0       106.3       105.4       104.2       102.5    
        100.0    
  53    100.0       102.2       103.6       104.6       105.3       106.0       106.5       107.0       107.4       107.8    
        108.1       108.4       108.8       109.0       109.3       109.6       109.8       110.1       110.3       110.5    
        110.7       110.9       111.1       111.3       111.5       111.7       111.9       112.1       112.2       112.4    
        112.6       112.7       112.9       113.1       113.2       113.4       113.5       113.6       113.8       113.9    
        114.0       114.1       114.2       114.3       114.4       114.5       114.6       114.6       114.7       114.8    
        114.8       114.9       114.9       114.9       114.9       115.0       115.0       115.0       114.9       114.9    
        114.9       114.9       114.8       114.8       114.7       114.6       114.6       114.5       114.4       114.3    
        114.1       114.0       113.9       113.7       113.6       113.4       113.3       113.1       112.9       112.7    
        112.5       112.2       112.0       111.7       111.5       111.2       110.9       110.6       110.3       109.9    
        109.5       109.1       108.7       108.2       107.6       107.0       106.3       105.4       104.2       102.5    
        100.0    
  54    100.0       102.2       103.6       104.6       105.4       106.0       106.6       107.0       107.5       107.8    
        108.2       108.5       108.8       109.1       109.4       109.6       109.9       110.1       110.4       110.6    
        110.8       111.0       111.2       111.4       111.6       111.8       112.0       112.2       112.3       112.5    
        112.7       112.8       113.0       113.1       113.3       113.4       113.6       113.7       113.8       113.9    
        114.1       114.2       114.3       114.4       114.5       114.5       114.6       114.7       114.7       114.8    
        114.9       114.9       114.9       115.0       115.0       115.0       115.0       115.0       115.0       114.9    
        114.9       114.9       114.8       114.8       114.7       114.6       114.6       114.5       114.4       114.3    
        114.1       114.0       113.9       113.7       113.6       113.4       113.3       113.1       112.9       112.7    
        112.5       112.2       112.0       111.7       111.5       111.2       110.9       110.6       110.3       109.9    
[...]
        106.0       106.1       106.3       106.5       106.6       106.8       107.0       107.1       107.3       107.4    
        107.6       107.7       107.8       108.0       108.1       108.2       108.3       108.4       108.6       108.7    
        108.7       108.8       108.9       109.0       109.1       109.2       109.2       109.3       109.4       109.4    
        109.5       109.5       109.6       109.6       109.6       109.7       109.7       109.7       109.7       109.7    
        109.7       109.8       109.8       109.8       109.7       109.7       109.7       109.7       109.7       109.6    
        109.6       109.6       109.5       109.5       109.4       109.4       109.3       109.2       109.2       109.1    
        109.0       108.9       108.8       108.7       108.6       108.5       108.4       108.3       108.1       108.0    
        107.9       107.7       107.6       107.4       107.3       107.1       106.9       106.8       106.6       106.4    
        106.2       106.1       105.9       105.7       105.6       105.4       105.3       105.2       105.1       105.0    
        105.0    
  89    104.7       104.7       104.8       104.8       104.9       105.1       105.2       105.3       105.5       105.7    
        105.8       106.0       106.2       106.3       106.5       106.6       106.8       107.0       107.1       107.2    
        107.4       107.5       107.6       107.8       107.9       108.0       108.1       108.2       108.3       108.4    
        108.5       108.6       108.7       108.8       108.8       108.9       109.0       109.0       109.1       109.2    
        109.2       109.3       109.3       109.3       109.4       109.4       109.4       109.4       109.5       109.5    
        109.5       109.5       109.5       109.5       109.5       109.5       109.5       109.4       109.4       109.4    
        109.3       109.3       109.3       109.2       109.2       109.1       109.0       109.0       108.9       108.8    
        108.7       108.7       108.6       108.5       108.4       108.3       108.2       108.0       107.9       107.8    
        107.7       107.5       107.4       107.2       107.1       106.9       106.7       106.6       106.4       106.2    
        106.1       105.9       105.7       105.6       105.4       105.3       105.2       105.1       105.0       104.9    
        104.9    
  90    104.6       104.6       104.6       104.7       104.8       104.9       105.1       105.2       105.4       105.5    
        105.7       105.8       106.0       106.2       106.3       106.5       106.6       106.8       106.9       107.1    
        107.2       107.3       107.4       107.6       107.7       107.8       107.9       108.0       108.1       108.2    
        108.3       108.4       108.5       108.5       108.6       108.7       108.7       108.8       108.9       108.9    
        109.0       109.0       109.0       109.1       109.1       109.1       109.2       109.2       109.2       109.2    
        109.2       109.2       109.2       109.2       109.2       109.2       109.2       109.2       109.1       109.1    
        109.1       109.0       109.0       109.0       108.9       108.9       108.8       108.7       108.7       108.6    
        108.5       108.4       108.3       108.2       108.1       108.0       107.9       107.8       107.7       107.6    
        107.4       107.3       107.2       107.0       106.9       106.7       106.6       106.4       106.2       106.1    
        105.9       105.7       105.6       105.4       105.3       105.2       105.0       104.9       104.9       104.8    
        104.8    
  91    104.5       104.5       104.5       104.6       104.7       104.8       104.9       105.1       105.2       105.4    
        105.5       105.7       105.8       106.0       106.1       106.3       106.4       106.6       106.7       106.9    
        107.0       107.1       107.2       107.4       107.5       107.6       107.7       107.8       107.9       108.0    
        108.1       108.1       108.2       108.3       108.4       108.4       108.5       108.6       108.6       108.7    
        108.7       108.7       108.8       108.8       108.9       108.9       108.9       108.9       108.9       109.0    
        109.0       109.0       109.0       109.0       109.0       108.9       108.9       108.9       108.9       108.9    
        108.8       108.8       108.7       108.7       108.6       108.6       108.5       108.5       108.4       108.3    
        108.3       108.2       108.1       108.0       107.9       107.8       107.7       107.6       107.5       107.4    
        107.2       107.1       107.0       106.8       106.7       106.5       106.4       106.2       106.1       105.9    
        105.8       105.6       105.4       105.3       105.2       105.0       104.9       104.8       104.7       104.7    
        104.7    
  92    104.4       104.4       104.4       104.5       104.6       104.7       104.8       105.0       105.1       105.2    
        105.4       105.5       105.7       105.8       106.0       106.1       106.3       106.4       106.5       106.7    
        106.8       106.9       107.0       107.1       107.3       107.4       107.5       107.6       107.7       107.7    
        107.8       107.9       108.0       108.1       108.1       108.2       108.2       108.3       108.4       108.4    
        108.5       108.5       108.5       108.6       108.6       108.6       108.6       108.7       108.7       108.7    
        108.7       108.7       108.7       108.7       108.7       108.7       108.7       108.6       108.6       108.6    
        108.6       108.5       108.5       108.4       108.4       108.3       108.3       108.2       108.2       108.1    
        108.0       107.9       107.9       107.8       107.7       107.6       107.5       107.4       107.3       107.1    
        107.0       106.9       106.8       106.6       106.5       106.3       106.2       106.1       105.9       105.7    
        105.6       105.4       105.3       105.2       105.0       104.9       104.8       104.7       104.6       104.6    
        104.5    
  93    104.2       104.3       104.3       104.4       104.5       104.6       104.7       104.8       105.0       105.1    
        105.2       105.4       105.5       105.7       105.8       106.0       106.1       106.2       106.3       106.5    
        106.6       106.7       106.8       106.9       107.0       107.1       107.2       107.3       107.4       107.5    
        107.6       107.7       107.7       107.8       107.9       107.9       108.0       108.1       108.1       108.2    
        108.2       108.2       108.3       108.3       108.3       108.4       108.4       108.4       108.4       108.4    
        108.4       108.4       108.4       108.4       108.4       108.4       108.4       108.4       108.4       108.3    
        108.3       108.3       108.2       108.2       108.1       108.1       108.0       108.0       107.9       107.9    
        107.8       107.7       107.6       107.5       107.4       107.4       107.3       107.2       107.0       106.9    
        106.8       106.7       106.6       106.4       106.3       106.2       106.0       105.9       105.7       105.6    
        105.4       105.3       105.2       105.0       104.9       104.8       104.7       104.6       104.5       104.5    
        104.4    
  94    104.1       104.2       104.2       104.3       104.4       104.5       104.6       104.7       104.8       105.0    
        105.1       105.2       105.4       105.5       105.7       105.8       105.9       106.0       106.2       106.3    
        106.4       106.5       106.6       106.7       106.8       106.9       107.0       107.1       107.2       107.3    
        107.4       107.5       107.5       107.6       107.7       107.7       107.8       107.8       107.9       107.9    
        108.0       108.0       108.0       108.1       108.1       108.1       108.1       108.2       108.2       108.2    
        108.2       108.2       108.2       108.2       108.2       108.2       108.2       108.1       108.1       108.1    
        108.1       108.0       108.0       108.0       107.9       107.9       107.8       107.7       107.7       107.6    
        107.6       107.5       107.4       107.3       107.2       107.1       107.0       106.9       106.8       106.7    
        106.6       106.5       106.4       106.3       106.1       106.0       105.9       105.7       105.6       105.4    
        105.3       105.2       105.0       104.9       104.8       104.6       104.5       104.5       104.4       104.3    
        104.3    
  95    104.1       104.1       104.1       104.2       104.3       104.4       104.5       104.6       104.7       104.8    
        105.0       105.1       105.2       105.4       105.5       105.6       105.8       105.9       106.0       106.1    
        106.2       106.3       106.4       106.6       106.7       106.7       106.8       106.9       107.0       107.1    
        107.2       107.2       107.3       107.4       107.4       107.5       107.6       107.6       107.7       107.7    
        107.7       107.8       107.8       107.8       107.9       107.9       107.9       107.9       107.9       108.0    
        108.0       108.0       108.0       108.0       108.0       107.9       107.9       107.9       107.9       107.9    
        107.8       107.8       107.8       107.7       107.7       107.6       107.6       107.5       107.5       107.4    
        107.3       107.3       107.2       107.1       107.0       106.9       106.8       106.7       106.6       106.5    
        106.4       106.3       106.2       106.1       106.0       105.8       105.7       105.6       105.4       105.3    
        105.2       105.0       104.9       104.8       104.6       104.5       104.4       104.3       104.3       104.2    
        104.2    
  96    104.0       104.0       104.0       104.1       104.2       104.3       104.4       104.5       104.6       104.7    
        104.8       105.0       105.1       105.2       105.4       105.5       105.6       105.7       105.8       106.0    
        106.1       106.2       106.3       106.4       106.5       106.6       106.7       106.7       106.8       106.9    
        107.0       107.0       107.1       107.2       107.2       107.3       107.3       107.4       107.4       107.5    
        107.5       107.6       107.6       107.6       107.7       107.7       107.7       107.7       107.7       107.7    
        107.7       107.7       107.7       107.7       107.7       107.7       107.7       107.7       107.7       107.6    
        107.6       107.6       107.6       107.5       107.5       107.4       107.4       107.3       107.3       107.2    
        107.1       107.1       107.0       106.9       106.8       106.7       106.7       106.6       106.5       106.4    
        106.3       106.1       106.0       105.9       105.8       105.7       105.5       105.4       105.3       105.2    
        105.0       104.9       104.8       104.6       104.5       104.4       104.3       104.3       104.2       104.1    
        104.1    
  97    103.9       103.9       104.0       104.0       104.1       104.2       104.3       104.4       104.5       104.6    
        104.7       104.9       105.0       105.1       105.2       105.4       105.5       105.6       105.7       105.8    
        105.9       106.0       106.1       106.2       106.3       106.4       106.5       106.6       106.7       106.7    
        106.8       106.9       106.9       107.0       107.1       107.1       107.2       107.2       107.3       107.3    
        107.3       107.4       107.4       107.4       107.5       107.5       107.5       107.5       107.5       107.5    
        107.6       107.6       107.6       107.6       107.5       107.5       107.5       107.5       107.5       107.5    
        107.4       107.4       107.4       107.3       107.3       107.2       107.2       107.1       107.1       107.0    
        107.0       106.9       106.8       106.7       106.7       106.6       106.5       106.4       106.3       106.2    
        106.1       106.0       105.9       105.8       105.7       105.5       105.4       105.3       105.2       105.0    
        104.9       104.8       104.7       104.5       104.4       104.3       104.2       104.2       104.1       104.1    
        104.0    
  98    103.8       103.8       103.9       103.9       104.0       104.1       104.2       104.3       104.4       104.5    
        104.6       104.8       104.9       105.0       105.1       105.2       105.4       105.5       105.6       105.7    
        105.8       105.9       106.0       106.1       106.2       106.3       106.4       106.4       106.5       106.6    
        106.7       106.7       106.8       106.9       106.9       107.0       107.0       107.1       107.1       107.1    
        107.2       107.2       107.3       107.3       107.3       107.3       107.3       107.4       107.4       107.4    
        107.4       107.4       107.4       107.4       107.4       107.4       107.4       107.3       107.3       107.3    
        107.3       107.2       107.2       107.2       107.1       107.1       107.0       107.0       106.9       106.9    
        106.8       106.7       106.7       106.6       106.5       106.4       106.4       106.3       106.2       106.1    
        106.0       105.9       105.8       105.7       105.5       105.4       105.3       105.2       105.1       104.9    
        104.8       104.7       104.6       104.5       104.3       104.3       104.2       104.1       104.0       104.0    
        104.0    
  99    103.8       103.8       103.8       103.9       104.0       104.0       104.1       104.2       104.3       104.5    
        104.6       104.7       104.8       104.9       105.0       105.2       105.3       105.4       105.5       105.6    
        105.7       105.8       105.9       106.0       106.1       106.2       106.2       106.3       106.4       106.5    
        106.5       106.6       106.7       106.7       106.8       106.8       106.9       106.9       107.0       107.0    
        107.1       107.1       107.1       107.2       107.2       107.2       107.2       107.2       107.2       107.3    
        107.3       107.3       107.3       107.3       107.3       107.2       107.2       107.2       107.2       107.2    
        107.1       107.1       107.1       107.0       107.0       107.0       106.9       106.9       106.8       106.8    
        106.7       106.6       106.6       106.5       106.4       106.3       106.2       106.2       106.1       106.0    
        105.9       105.8       105.7       105.6       105.4       105.3       105.2       105.1       105.0       104.9    
        104.7       104.6       104.5       104.4       104.3       104.2       104.1       104.0       104.0       103.9    
        103.9    
 100    103.7       103.8       103.8       103.8       103.9       104.0       104.1       104.2       104.3       104.4    
        104.5       104.6       104.8       104.9       105.0       105.1       105.2       105.3       105.4       105.5    
        105.6       105.7       105.8       105.9       106.0       106.1       106.2       106.3       106.3       106.4    
        106.5       106.5       106.6       106.7       106.7       106.8       106.8       106.9       106.9       106.9    
        107.0       107.0       107.0       107.1       107.1       107.1       107.1       107.1       107.2       107.2    
        107.2       107.2       107.2       107.2       107.2       107.2       107.1       107.1       107.1       107.1    
        107.1       107.0       107.0       107.0       106.9       106.9       106.8       106.8       106.7       106.7    
        106.6       106.5       106.5       106.4       106.3       106.3       106.2       106.1       106.0       105.9    
        105.8       105.7       105.6       105.5       105.4       105.3       105.2       105.0       104.9       104.8    
        104.7       104.6       104.5       104.3       104.2       104.1       104.1       104.0       103.9       103.9    
        103.9    
 101    103.7       103.7       103.8       103.8       103.9       104.0       104.1       104.2       104.3       104.4    
        104.5       104.6       104.7       104.8       105.0       105.1       105.2       105.3       105.4       105.5    
        105.6       105.7       105.8       105.9       106.0       106.1       106.1       106.2       106.3       106.4    
        106.4       106.5       106.6       106.6       106.7       106.7       106.8       106.8       106.9       106.9    
        106.9       107.0       107.0       107.0       107.1       107.1       107.1       107.1       107.1       107.1    
        107.1       107.1       107.1       107.1       107.1       107.1       107.1       107.1       107.1       107.0    
        107.0       107.0       107.0       106.9       106.9       106.8       106.8       106.7       106.7       106.6    
        106.6       106.5       106.4       106.4       106.3       106.2       106.1       106.0       106.0       105.9    
        105.8       105.7       105.6       105.5       105.3       105.2       105.1       105.0       104.9       104.8    
        104.7       104.5       104.4       104.3       104.2       104.1       104.0       104.0       103.9       103.9    
        103.9    

 HEAD WILL BE SAVED ON UNIT 1015 AT END OF TIME STEP    1, STRESS PERIOD    1


  VOLUME BUDGET FOR ENTIRE MODEL AT END OF TIME STEP    1, STRESS PERIOD   1
  ---------------------------------------------------------------------------------------------------

     CUMULATIVE VOLUME      L**3       RATES FOR THIS TIME STEP      L**3/T          PACKAGE NAME    
     ------------------                 ------------------------                     ----------------

           IN:                                      IN:
           ---                                      ---
                 WEL =           0.0000                   WEL =           0.0000     WEL_0                            
                RCHA =        7532.3617                  RCHA =        7532.3617     RCH                              
                 CHD =           0.0000                   CHD =           0.0000     CHD_0                            

            TOTAL IN =        7532.3617              TOTAL IN =        7532.3617

          OUT:                                     OUT:
          ----                                     ----
                 WEL =        1098.3602                   WEL =        1098.3602     WEL_0                            
                RCHA =           0.0000                  RCHA =           0.0000     RCH                              
                 CHD =        6429.2968                   CHD =        6429.2968     CHD_0                            

           TOTAL OUT =        7527.6570             TOTAL OUT =        7527.6570

            IN - OUT =           4.7048              IN - OUT =           4.7048

 PERCENT DISCREPANCY =           0.06     PERCENT DISCREPANCY =           0.06




         TIME SUMMARY AT END OF TIME STEP    1 IN STRESS PERIOD    1
                    SECONDS     MINUTES      HOURS       DAYS        YEARS
                    -----------------------------------------------------------
   TIME STEP LENGTH  86400.      1440.0      24.000      1.0000     2.73785E-03
 STRESS PERIOD TIME  86400.      1440.0      24.000      1.0000     2.73785E-03
         TOTAL TIME  86400.      1440.0      24.000      1.0000     2.73785E-03


end timestep

