                                   MODFLOW 6
                U.S. GEOLOGICAL SURVEY MODULAR HYDROLOGIC MODEL
                          GROUNDWATER FLOW MODEL (GWF)
                        VERSION 6.4.1 Release 12/09/2022

   MODFLOW 6 compiled Dec 09 2022 18:18:37 with Intel(R) Fortran Intel(R) 64
   Compiler Classic for applications running on Intel(R) 64, Version 2021.7.0
                             Build 20220726_000000

This software has been approved for release by the U.S. Geological 
Survey (USGS). Although the software has been subjected to rigorous 
review, the USGS reserves the right to update the software as needed 
pursuant to further analysis and review. No warranty, expressed or 
implied, is made by the USGS or the U.S. Government as to the 
functionality of the software and related material nor shall the 
fact of release constitute any such warranty. Furthermore, the 
software is released on condition that neither the USGS nor the U.S. 
Government shall be held liable for any damages resulting from its 
authorized or unauthorized use. Also refer to the USGS Water 
Resources Software User Rights Notice for complete use, copyright, 
and distribution information.


As a work of the United States Government, this USGS product is 
in the public domain within the United States. You can copy, 
modify, distribute, and perform the work, even for commercial 
purposes, all without asking permission. Additionally, USGS 
waives copyright and related rights in the work worldwide 
through CC0 1.0 Universal Public Domain Dedication 
(https://creativecommons.org/publicdomain/zero/1.0/).

The following GNU Lesser General Public License (LGPL) libraries
are used in this USGS product:

    SPARSKIT version 2.0
      ilut, luson, and qsplit 
      (https://www-users.cse.umn.edu/~saad/software/SPARSKIT/)

    RCM - Reverse Cuthill McKee Ordering
      (https://people.math.sc.edu/Burkardt/f_src/rcm/rcm.html)

    BLAS - Basic Linear Algebra Subprograms Level 1
      (https://people.math.sc.edu/Burkardt/f_src/blas1_d/blas1_d.html)

    SPARSEKIT - Sparse Matrix Utility Package
      amux, dperm, dvperm, rperm, and cperm
      (https://people.sc.fsu.edu/~jburkardt/f77_src/sparsekit/sparsekit.html)

The following BSD-3 License libraries are used in this USGS product:

    Modern Fortran DAG Library
      Copyright (c) 2018, Jacob Williams
      All rights reserved.
      (https://github.com/jacobwilliams/daglib)

MODFLOW 6 compiler options: /Isrc\libmf6core.a.p /Isrc /I..\src
/Isrc\libmf6_external.a.p /MTd /nologo /warn:general /warn:truncated_source
/stand:f08 /Zi /traceback /O2 /fpe:0 /heap-arrays:0 /traceback /fpp
/Qdiag-disable:7416 /Qdiag-disable:7025 /Qdiag-disable:5268
/Fdsrc\libmf6core.a.p\Utilities_compilerversion.F90.pdb
/module:src\libmf6core.a.p
/Fosrc/libmf6core.a.p/Utilities_compilerversion.F90.obj /c

System command used to initiate simulation:
"C:\Users\ksil8584\OneDrive - The University of Sydney (Staff)\Documents\Modflow\mf6.4.1\bin\mf6.exe"

MODFLOW was compiled using uniform precision.

Real Variables
  KIND: 8
  TINY (smallest non-zero value):    2.225074-308
  HUGE (largest value):    1.797693+308
  PRECISION: 15
  SIZE IN BITS: 64

Integer Variables
  KIND: 4
  HUGE (largest value): 2147483647
  SIZE IN BITS: 32

Long Integer Variables
  KIND: 8
  HUGE (largest value): 9223372036854775807
  SIZE IN BITS: 64

Logical Variables
  KIND: 4
  SIZE IN BITS: 32
 

 OPENED FloPy_ModelS_T1b.dis
 FILE TYPE:DIS6                   UNIT 1005   STATUS:OLD                 
 FORMAT:FORMATTED              ACCESS:SEQUENTIAL          
 ACTION:READ                


 OPENED FloPy_ModelS_T1b.ic
 FILE TYPE:IC6                    UNIT 1006   STATUS:OLD                 
 FORMAT:FORMATTED              ACCESS:SEQUENTIAL          
 ACTION:READ                


 OPENED FloPy_ModelS_T1b.npf
 FILE TYPE:NPF6                   UNIT 1007   STATUS:OLD                 
 FORMAT:FORMATTED              ACCESS:SEQUENTIAL          
 ACTION:READ                


 OPENED FloPy_ModelS_T1b.chd
 FILE TYPE:CHD6                   UNIT 1008   STATUS:OLD                 
 FORMAT:FORMATTED              ACCESS:SEQUENTIAL          
 ACTION:READ                


 OPENED FloPy_ModelS_T1b.oc
 FILE TYPE:OC6                    UNIT 1009   STATUS:OLD                 
 FORMAT:FORMATTED              ACCESS:SEQUENTIAL          
 ACTION:READ                


 OPENED FloPy_ModelS_T1b.wel
 FILE TYPE:WEL6                   UNIT 1010   STATUS:OLD                 
 FORMAT:FORMATTED              ACCESS:SEQUENTIAL          
 ACTION:READ                


 OPENED FloPy_ModelS_T1b.rcha
 FILE TYPE:RCH6                   UNIT 1011   STATUS:OLD                 
 FORMAT:FORMATTED              ACCESS:SEQUENTIAL          
 ACTION:READ                

 NAMEFILE OPTIONS:
    FLOWS WILL BE SAVED TO BUDGET FILE SPECIFIED IN OUTPUT CONTROL
    NEWTON-RAPHSON method enabled for the model.
    NEWTON-RAPHSON UNDER-RELAXATION based on the bottom elevation of the model will be applied to the model.

 DIS -- STRUCTURED GRID DISCRETIZATION PACKAGE, VERSION 2 : 3/27/2014 - INPUT READ FROM UNIT 1005

 Loading input for FLOPY_MODELS_T1B/DIS
 # File generated by Flopy version 3.3.6 on 06/13/2023 at 14:51:02.
   NLAY = 10
   NROW = 101
   NCOL = 101
   DELR = 4.000000000000000
   DELC = 4.000000000000000
   TOP = .000000000000000
   BOTM = variable 3D double precision array ranging from -50.00000000000000 to -5.000000000000000
 Loading input complete...


 NPF -- NODE PROPERTY FLOW PACKAGE, VERSION 1, 3/30/2015 INPUT READ FROM UNIT 1007

 Loading input for FLOPY_MODELS_T1B/NPF
 # File generated by Flopy version 3.3.6 on 06/13/2023 at 14:51:02.
   ICELLTYPE = 1
   K = 1.000000000000000
 Loading input complete...

 Setting Discretization Options
 End Setting Discretization Options

 Setting Discretization Dimensions
    NLAY = 10
    NROW = 101
    NCOL = 101
 End Setting Discretization Dimensions

 Setting Discretization Griddata
    DELR set from input file
    DELC set from input file
    TOP set from input file
    BOTM set from input file
 End Setting Discretization Griddata

 Setting NPF Options
 End Setting NPF Options

 Setting NPF Griddata
    ICELLTYPE set from input file
    K set from input file
    K33 not provided.  Setting K33 = K.
    K22 not provided.  Setting K22 = K.
 End Setting NPF Griddata


 WEL   -- WEL PACKAGE, VERSION 8, 2/22/2014 INPUT READ FROM UNIT 1010
 # File generated by Flopy version 3.3.6 on 06/13/2023 at 14:51:02.

 PROCESSING WEL OPTIONS
 END OF WEL OPTIONS

 PROCESSING WEL DIMENSIONS
    MAXBOUND =       1
 END OF WEL DIMENSIONS

 RCH   -- RCH PACKAGE, VERSION 8, 2/22/2014 INPUT READ FROM UNIT 1011
 # File generated by Flopy version 3.3.6 on 06/13/2023 at 14:51:02.

 PROCESSING RCH OPTIONS
    RECHARGE INPUT WILL BE READ AS ARRAY(S).
 END OF RCHA OPTIONS

 CHD   -- CHD PACKAGE, VERSION 8, 2/22/2014 INPUT READ FROM UNIT 1008
 # File generated by Flopy version 3.3.6 on 06/13/2023 at 14:51:02.

 PROCESSING CHD OPTIONS
 END OF CHD OPTIONS

 PROCESSING CHD DIMENSIONS
    MAXBOUND =     400
 END OF CHD DIMENSIONS

 IC -- INITIAL CONDITIONS PACKAGE, VERSION 8, 3/28/2015 INPUT READ FROM UNIT 1006
 # File generated by Flopy version 3.3.6 on 06/13/2023 at 14:51:02.
 PROCESSING GRIDDATA
 END PROCESSING GRIDDATA
    BINARY GRID INFORMATION WILL BE WRITTEN TO:
      UNIT NUMBER: 1013
      FILE NAME: C:\Users\ksil8584\OneDrive - The University of Sydney (Staff)\Documents\Modflow\FloPy models\FP_ModelS_1b\output2b\FloPy_ModelS_T1b.dis.grb

 OPENED C:\Users\ksil8584\OneDrive - The University of Sydney (Staff)\Documents\Modflow\FloPy models\FP_ModelS_1b\output2b\FloPy_ModelS_T1b.dis.grb
 FILE TYPE:DATA(BINARY)   UNIT 1013   STATUS:REPLACE             
 FORMAT:UNFORMATTED            ACCESS:STREAM              
 ACTION:READWRITE           

      THE LAST TIME STEP WILL BE PRINTED
      THE LAST TIME STEP WILL BE PRINTED
 # File generated by Flopy version 3.3.6 on 06/13/2023 at 14:51:02.

 PROCESSING OC OPTIONS

    BUDGET INFORMATION WILL BE WRITTEN TO:
      UNIT NUMBER: 1014
      FILE NAME: FloPy_ModelS_T1b.cbb

 OPENED FloPy_ModelS_T1b.cbb
 FILE TYPE:DATA(BINARY)   UNIT 1014   STATUS:REPLACE             
 FORMAT:UNFORMATTED            ACCESS:STREAM              
 ACTION:READWRITE           

    HEAD INFORMATION WILL BE WRITTEN TO:
      UNIT NUMBER: 1015
      FILE NAME: FloPy_ModelS_T1b.hds

 OPENED FloPy_ModelS_T1b.hds
 FILE TYPE:DATA(BINARY)   UNIT 1015   STATUS:REPLACE             
 FORMAT:UNFORMATTED            ACCESS:STREAM              
 ACTION:READWRITE           

 END OF OC OPTIONS

start timestep kper="1" kstp="1" mode="normal"


 BEGIN READING OUTPUT CONTROL FOR STRESS PERIOD 1
      ALL TIME STEPS WILL BE SAVED
      ALL TIME STEPS WILL BE SAVED
      THE LAST TIME STEP WILL BE PRINTED

 END READING OUTPUT CONTROL FOR STRESS PERIOD 1

                 RECHARGE =   0.000000    
 UBDSV1 SAVING     FLOW-JA-FACE ON UNIT   1014 AT TIME STEP      1, STRESS PERIOD      1
 UBDSV06 SAVING              WEL IN MODEL FLOPY_MODELS_T1B PACKAGE FLOPY_MODELS_T1BCONNECTED TO MODEL FLOPY_MODELS_T1B PACKAGE WEL_0            ON UNIT   1014 AT TIME STEP      1, STRESS PERIOD      1
 UBDSV06 SAVING             RCHA IN MODEL FLOPY_MODELS_T1B PACKAGE FLOPY_MODELS_T1BCONNECTED TO MODEL FLOPY_MODELS_T1B PACKAGE RCH              ON UNIT   1014 AT TIME STEP      1, STRESS PERIOD      1
 UBDSV06 SAVING              CHD IN MODEL FLOPY_MODELS_T1B PACKAGE FLOPY_MODELS_T1BCONNECTED TO MODEL FLOPY_MODELS_T1B PACKAGE CHD_0            ON UNIT   1014 AT TIME STEP      1, STRESS PERIOD      1
1
  HEAD IN LAYER   1 AT END OF TIME STEP   1 IN STRESS PERIOD    1
  ---------------------------------------------------------------------------

            1           2           3           4           5           6           7           8           9          10
           11          12          13          14          15          16          17          18          19          20
           21          22          23          24          25          26          27          28          29          30
           31          32          33          34          35          36          37          38          39          40
           41          42          43          44          45          46          47          48          49          50
           51          52          53          54          55          56          57          58          59          60
           61          62          63          64          65          66          67          68          69          70
           71          72          73          74          75          76          77          78          79          80
           81          82          83          84          85          86          87          88          89          90
           91          92          93          94          95          96          97          98          99         100
          101
 ........................................................................................................................
   1    100.0       100.0       100.0       100.0       100.0       100.0       100.0       100.0       100.0       100.0    
        100.0       100.0       100.0       100.0       100.0       100.0       100.0       100.0       100.0       100.0    
        100.0       100.0       100.0       100.0       100.0       100.0       100.0       100.0       100.0       100.0    
        100.0       100.0       100.0       100.0       100.0       100.0       100.0       100.0       100.0       100.0    
        100.0       100.0       100.0       100.0       100.0       100.0       100.0       100.0       100.0       100.0    
        100.0       100.0       100.0       100.0       100.0       100.0       100.0       100.0       100.0       100.0    
        100.0       100.0       100.0       100.0       100.0       100.0       100.0       100.0       100.0       100.0    
        100.0       100.0       100.0       100.0       100.0       100.0       100.0       100.0       100.0       100.0    
        100.0       100.0       100.0       100.0       100.0       100.0       100.0       100.0       100.0       100.0    
        100.0       100.0       100.0       100.0       100.0       100.0       100.0       100.0       100.0       100.0    
        100.0    
   2    100.0       99.80       99.70       99.64       99.59       99.55       99.52       99.49       99.46       99.43    
        99.41       99.38       99.36       99.34       99.32       99.30       99.28       99.26       99.24       99.23    
        99.22       99.20       99.20       99.19       99.18       99.18       99.18       99.18       99.18       99.19    
        99.19       99.20       99.21       99.22       99.23       99.25       99.26       99.28       99.29       99.31    
        99.33       99.34       99.36       99.38       99.40       99.41       99.43       99.45       99.47       99.48    
        99.50       99.52       99.53       99.55       99.56       99.58       99.59       99.60       99.62       99.63    
        99.64       99.66       99.67       99.68       99.69       99.70       99.71       99.72       99.73       99.74    
        99.75       99.76       99.77       99.78       99.79       99.80       99.80       99.81       99.82       99.83    
        99.83       99.84       99.85       99.85       99.86       99.86       99.87       99.88       99.88       99.89    
        99.89       99.90       99.90       99.91       99.91       99.92       99.93       99.94       99.95       99.97    
        100.0    
   3    100.0       99.70       99.53       99.42       99.33       99.27       99.21       99.16       99.11       99.06    
        99.02       98.98       98.94       98.91       98.87       98.84       98.81       98.78       98.75       98.72    
        98.70       98.68       98.67       98.66       98.65       98.64       98.64       98.64       98.64       98.65    
        98.66       98.67       98.69       98.71       98.73       98.75       98.78       98.80       98.83       98.86    
        98.88       98.91       98.94       98.97       99.00       99.03       99.06       99.09       99.12       99.15    
        99.17       99.20       99.23       99.25       99.28       99.30       99.33       99.35       99.37       99.39    
        99.41       99.43       99.45       99.47       99.49       99.51       99.53       99.55       99.56       99.58    
        99.59       99.61       99.62       99.64       99.65       99.66       99.68       99.69       99.70       99.71    
        99.72       99.74       99.75       99.76       99.77       99.78       99.79       99.80       99.80       99.81    
        99.82       99.83       99.84       99.85       99.86       99.87       99.88       99.90       99.92       99.95    
        100.0    
   4    100.0       99.64       99.42       99.27       99.16       99.07       98.99       98.92       98.86       98.80    
        98.74       98.69       98.64       98.59       98.54       98.50       98.46       98.42       98.38       98.35    
        98.32       98.30       98.28       98.26       98.25       98.24       98.24       98.24       98.25       98.26    
        98.27       98.29       98.31       98.33       98.36       98.39       98.42       98.45       98.49       98.53    
        98.56       98.60       98.64       98.68       98.72       98.75       98.79       98.83       98.87       98.90    
        98.94       98.97       99.01       99.04       99.07       99.10       99.13       99.16       99.19       99.22    
        99.25       99.27       99.30       99.32       99.35       99.37       99.39       99.42       99.44       99.46    
        99.48       99.50       99.52       99.53       99.55       99.57       99.58       99.60       99.62       99.63    
        99.65       99.66       99.67       99.69       99.70       99.71       99.73       99.74       99.75       99.76    
        99.77       99.78       99.80       99.81       99.82       99.84       99.85       99.87       99.90       99.94    
        100.0    
   5    100.0       99.59       99.33       99.16       99.02       98.91       98.82       98.74       98.66       98.59    
        98.52       98.46       98.40       98.34       98.28       98.23       98.18       98.13       98.09       98.05    
        98.02       97.99       97.96       97.94       97.93       97.92       97.92       97.92       97.92       97.94    
        97.95       97.98       98.00       98.03       98.06       98.10       98.14       98.18       98.22       98.26    
        98.31       98.35       98.40       98.44       98.49       98.53       98.58       98.62       98.67       98.71    
        98.75       98.79       98.83       98.87       98.91       98.95       98.98       99.02       99.05       99.09    
        99.12       99.15       99.18       99.21       99.24       99.26       99.29       99.32       99.34       99.36    
        99.39       99.41       99.43       99.45       99.47       99.49       99.51       99.53       99.55       99.57    
        99.58       99.60       99.62       99.63       99.65       99.66       99.68       99.69       99.71       99.72    
        99.73       99.75       99.76       99.78       99.79       99.81       99.83       99.85       99.88       99.93    
        100.0    
   6    100.0       99.55       99.27       99.07       98.91       98.79       98.68       98.58       98.50       98.41    
        98.34       98.26       98.19       98.12       98.06       98.00       97.94       97.89       97.84       97.79    
        97.75       97.72       97.69       97.67       97.65       97.64       97.64       97.64       97.65       97.66    
        97.68       97.71       97.74       97.77       97.81       97.85       97.90       97.94       97.99       98.04    
        98.09       98.14       98.20       98.25       98.30       98.35       98.40       98.45       98.50       98.55    
        98.60       98.64       98.69       98.73       98.78       98.82       98.86       98.90       98.94       98.97    
        99.01       99.04       99.08       99.11       99.14       99.17       99.20       99.23       99.26       99.29    
        99.31       99.34       99.36       99.39       99.41       99.43       99.45       99.47       99.50       99.52    
        99.53       99.55       99.57       99.59       99.61       99.62       99.64       99.66       99.67       99.69    
        99.70       99.72       99.74       99.75       99.77       99.79       99.81       99.84       99.87       99.92    
        100.0    
   7    100.0       99.52       99.21       98.99       98.82       98.68       98.56       98.45       98.35       98.26    
        98.17       98.09       98.01       97.94       97.86       97.79       97.73       97.67       97.61       97.56    
        97.52       97.48       97.44       97.42       97.40       97.39       97.38       97.39       97.40       97.41    
        97.44       97.47       97.50       97.54       97.58       97.63       97.68       97.73       97.79       97.84    
        97.90       97.96       98.02       98.08       98.13       98.19       98.25       98.30       98.36       98.41    
        98.46       98.52       98.57       98.61       98.66       98.71       98.75       98.80       98.84       98.88    
        98.92       98.96       98.99       99.03       99.06       99.10       99.13       99.16       99.19       99.22    
        99.25       99.28       99.30       99.33       99.36       99.38       99.40       99.43       99.45       99.47    
        99.49       99.51       99.53       99.55       99.57       99.59       99.61       99.62       99.64       99.66    
        99.68       99.69       99.71       99.73       99.75       99.77       99.80       99.83       99.86       99.92    
        100.0    
   8    100.0       99.49       99.16       98.92       98.74       98.58       98.45       98.33       98.23       98.12    
        98.03       97.94       97.85       97.76       97.68       97.61       97.53       97.46       97.40       97.34    
        97.29       97.25       97.21       97.18       97.16       97.15       97.15       97.15       97.16       97.18    
        97.21       97.24       97.28       97.33       97.37       97.43       97.48       97.54       97.60       97.67    
        97.73       97.79       97.86       97.92       97.98       98.05       98.11       98.17       98.23       98.29    
        98.35       98.40       98.46       98.51       98.56       98.61       98.66       98.70       98.75       98.79    
        98.84       98.88       98.92       98.96       98.99       99.03       99.06       99.10       99.13       99.16    
        99.19       99.22       99.25       99.28       99.31       99.33       99.36       99.38       99.41       99.43    
        99.45       99.48       99.50       99.52       99.54       99.56       99.58       99.60       99.62       99.63    
        99.65       99.67       99.69       99.71       99.73       99.76       99.78       99.82       99.86       99.91    
        100.0    
   9    100.0       99.46       99.11       98.86       98.66       98.50       98.35       98.23       98.11       98.00    
        97.89       97.79       97.69       97.60       97.51       97.43       97.35       97.27       97.20       97.14    
        97.08       97.03       96.99       96.96       96.94       96.92       96.92       96.92       96.94       96.96    
        96.99       97.03       97.07       97.12       97.18       97.24       97.30       97.36       97.43       97.50    
        97.57       97.64       97.71       97.78       97.85       97.92       97.98       98.05       98.11       98.18    
        98.24       98.30       98.36       98.41       98.47       98.52       98.57       98.62       98.67       98.72    
        98.76       98.81       98.85       98.89       98.93       98.97       99.01       99.04       99.08       99.11    
        99.14       99.17       99.21       99.23       99.26       99.29       99.32       99.34       99.37       99.40    
        99.42       99.44       99.47       99.49       99.51       99.53       99.55       99.57       99.59       99.61    
        99.63       99.65       99.67       99.69       99.72       99.74       99.77       99.81       99.85       99.91    
        100.0    
  10    100.0       99.43       99.06       98.80       98.59       98.41       98.26       98.12       98.00       97.88    
        97.76       97.65       97.55       97.45       97.35       97.26       97.17       97.08       97.01       96.94    
        96.87       96.82       96.77       96.74       96.71       96.70       96.69       96.70       96.72       96.74    
        96.78       96.82       96.87       96.92       96.99       97.05       97.12       97.19       97.27       97.34    
        97.42       97.49       97.57       97.65       97.72       97.79       97.87       97.94       98.01       98.07    
        98.14       98.20       98.26       98.32       98.38       98.44       98.49       98.55       98.60       98.65    
        98.70       98.74       98.79       98.83       98.87       98.91       98.95       98.99       99.03       99.06    
        99.10       99.13       99.16       99.19       99.22       99.25       99.28       99.31       99.34       99.36    
        99.39       99.41       99.44       99.46       99.48       99.51       99.53       99.55       99.57       99.59    
        99.61       99.63       99.66       99.68       99.70       99.73       99.76       99.80       99.84       99.90    
        100.0    
  11    100.0       99.41       99.02       98.74       98.52       98.34       98.17       98.03       97.89       97.76    
        97.64       97.52       97.41       97.30       97.19       97.09       96.99       96.90       96.82       96.74    
        96.67       96.61       96.56       96.52       96.49       96.48       96.47       96.48       96.50       96.53    
        96.57       96.61       96.67       96.73       96.80       96.87       96.95       97.03       97.11       97.19    
        97.27       97.36       97.44       97.52       97.60       97.68       97.76       97.83       97.91       97.98    
        98.05       98.11       98.18       98.24       98.30       98.36       98.42       98.48       98.53       98.58    
        98.63       98.68       98.73       98.77       98.82       98.86       98.90       98.94       98.98       99.02    
        99.05       99.09       99.12       99.16       99.19       99.22       99.25       99.28       99.31       99.33    
        99.36       99.39       99.41       99.43       99.46       99.48       99.51       99.53       99.55       99.57    
        99.60       99.62       99.64       99.67       99.69       99.72       99.75       99.79       99.84       99.90    
        100.0    
  12    100.0       99.38       98.98       98.69       98.46       98.26       98.09       97.94       97.79       97.65    
        97.52       97.39       97.27       97.15       97.04       96.93       96.82       96.72       96.63       96.54    
        96.47       96.40       96.34       96.30       96.27       96.25       96.25       96.26       96.28       96.31    
        96.36       96.41       96.47       96.54       96.62       96.70       96.78       96.87       96.96       97.05    
        97.14       97.23       97.31       97.40       97.49       97.57       97.65       97.73       97.81       97.89    
        97.96       98.03       98.10       98.17       98.23       98.29       98.35       98.41       98.47       98.52    
        98.58       98.63       98.68       98.72       98.77       98.81       98.86       98.90       98.94       98.98    
        99.01       99.05       99.09       99.12       99.15       99.19       99.22       99.25       99.28       99.30    
        99.33       99.36       99.39       99.41       99.44       99.46       99.49       99.51       99.53       99.56    
        99.58       99.60       99.63       99.65       99.68       99.71       99.74       99.78       99.83       99.90    
        100.0    
  13    100.0       99.36       98.94       98.64       98.40       98.19       98.01       97.85       97.69       97.55    
        97.41       97.27       97.14       97.01       96.89       96.77       96.65       96.54       96.44       96.35    
        96.26       96.19       96.13       96.08       96.05       96.03       96.02       96.04       96.06       96.10    
        96.15       96.21       96.28       96.36       96.44       96.53       96.62       96.72       96.81       96.91    
        97.00       97.10       97.20       97.29       97.38       97.47       97.56       97.64       97.72       97.80    
        97.88       97.95       98.03       98.10       98.16       98.23       98.29       98.35       98.41       98.47    
        98.52       98.58       98.63       98.68       98.72       98.77       98.81       98.86       98.90       98.94    
        98.98       99.02       99.05       99.09       99.12       99.16       99.19       99.22       99.25       99.28    
        99.31       99.34       99.36       99.39       99.42       99.44       99.47       99.49       99.52       99.54    
        99.56       99.59       99.61       99.64       99.67       99.70       99.73       99.77       99.82       99.89    
        100.0    
  14    100.0       99.34       98.91       98.59       98.34       98.12       97.94       97.76       97.60       97.45    
        97.30       97.15       97.01       96.87       96.74       96.61       96.48       96.36       96.25       96.15    
        96.06       95.98       95.91       95.86       95.82       95.80       95.80       95.81       95.84       95.88    
        95.94       96.01       96.08       96.17       96.26       96.36       96.46       96.56       96.67       96.77    
        96.88       96.98       97.08       97.18       97.28       97.37       97.46       97.55       97.64       97.72    
        97.80       97.88       97.96       98.03       98.10       98.17       98.23       98.30       98.36       98.42    
        98.47       98.53       98.58       98.63       98.68       98.73       98.77       98.82       98.86       98.90    
        98.94       98.98       99.02       99.06       99.09       99.13       99.16       99.19       99.22       99.25    
        99.28       99.31       99.34       99.37       99.40       99.42       99.45       99.47       99.50       99.52    
        99.55       99.58       99.60       99.63       99.66       99.69       99.72       99.77       99.82       99.89    
        100.0    
  15    100.0       99.32       98.87       98.54       98.28       98.06       97.86       97.68       97.51       97.35    
        97.19       97.04       96.89       96.74       96.59       96.45       96.32       96.19       96.07       95.95    
        95.85       95.76       95.69       95.63       95.59       95.57       95.57       95.58       95.62       95.66    
        95.73       95.80       95.89       95.99       96.09       96.20       96.31       96.42       96.53       96.64    
        96.75       96.86       96.97       97.08       97.18       97.28       97.37       97.47       97.56       97.65    
        97.73       97.81       97.89       97.97       98.04       98.11       98.18       98.24       98.31       98.37    
        98.42       98.48       98.54       98.59       98.64       98.69       98.74       98.78       98.83       98.87    
        98.91       98.95       98.99       99.03       99.06       99.10       99.13       99.17       99.20       99.23    
        99.26       99.29       99.32       99.35       99.38       99.40       99.43       99.46       99.48       99.51    
        99.54       99.56       99.59       99.62       99.65       99.68       99.72       99.76       99.81       99.89    
        100.0    
  16    100.0       99.30       98.84       98.50       98.23       98.00       97.79       97.61       97.43       97.26    
        97.09       96.93       96.77       96.61       96.45       96.30       96.16       96.02       95.88       95.76    
        95.65       95.55       95.47       95.40       95.36       95.34       95.34       95.35       95.39       95.45    
        95.52       95.60       95.70       95.81       95.92       96.04       96.15       96.28       96.40       96.52    
        96.64       96.75       96.87       96.98       97.09       97.19       97.29       97.39       97.48       97.57    
        97.66       97.75       97.83       97.91       97.98       98.06       98.13       98.19       98.26       98.32    
        98.38       98.44       98.50       98.55       98.60       98.65       98.70       98.75       98.79       98.84    
        98.88       98.92       98.96       99.00       99.04       99.07       99.11       99.14       99.18       99.21    
        99.24       99.27       99.30       99.33       99.36       99.39       99.42       99.44       99.47       99.50    
        99.52       99.55       99.58       99.61       99.64       99.67       99.71       99.75       99.81       99.88    
        100.0    
  17    100.0       99.28       98.81       98.46       98.18       97.94       97.73       97.53       97.35       97.17    
        96.99       96.82       96.65       96.48       96.32       96.16       96.00       95.85       95.70       95.57    
        95.44       95.34       95.25       95.18       95.13       95.10       95.10       95.12       95.17       95.23    
        95.31       95.41       95.51       95.63       95.75       95.88       96.01       96.14       96.27       96.40    
        96.52       96.65       96.77       96.89       97.00       97.11       97.21       97.32       97.41       97.51    
        97.60       97.69       97.77       97.85       97.93       98.00       98.08       98.15       98.21       98.28    
        98.34       98.40       98.46       98.51       98.57       98.62       98.67       98.72       98.76       98.81    
        98.85       98.89       98.94       98.98       99.01       99.05       99.09       99.12       99.16       99.19    
        99.22       99.25       99.28       99.31       99.34       99.37       99.40       99.43       99.46       99.48    
        99.51       99.54       99.57       99.60       99.63       99.66       99.70       99.75       99.80       99.88    
        100.0    
  18    100.0       99.26       98.78       98.42       98.13       97.89       97.67       97.46       97.27       97.08    
        96.90       96.72       96.54       96.36       96.19       96.02       95.85       95.68       95.52       95.38    
        95.24       95.13       95.03       94.95       94.90       94.87       94.87       94.90       94.95       95.02    
        95.11       95.21       95.33       95.46       95.59       95.73       95.87       96.01       96.15       96.29    
        96.42       96.55       96.68       96.80       96.92       97.03       97.14       97.25       97.35       97.45    
        97.54       97.63       97.72       97.80       97.88       97.96       98.03       98.10       98.17       98.24    
        98.30       98.36       98.42       98.48       98.53       98.59       98.64       98.69       98.73       98.78    
        98.83       98.87       98.91       98.95       98.99       99.03       99.07       99.10       99.14       99.17    
        99.20       99.24       99.27       99.30       99.33       99.36       99.39       99.41       99.44       99.47    
        99.50       99.53       99.56       99.59       99.62       99.66       99.70       99.74       99.80       99.88    
        100.0    
  19    100.0       99.24       98.75       98.38       98.09       97.84       97.61       97.40       97.20       97.01    
        96.82       96.63       96.44       96.25       96.07       95.88       95.70       95.52       95.36       95.20    
        95.05       94.92       94.82       94.73       94.68       94.65       94.65       94.68       94.73       94.81    
        94.91       95.03       95.16       95.30       95.44       95.59       95.74       95.89       96.04       96.18    
        96.32       96.46       96.59       96.72       96.84       96.96       97.07       97.18       97.29       97.39    
        97.49       97.58       97.67       97.75       97.84       97.91       97.99       98.06       98.13       98.20    
        98.27       98.33       98.39       98.45       98.50       98.56       98.61       98.66       98.71       98.75    
        98.80       98.84       98.89       98.93       98.97       99.01       99.05       99.08       99.12       99.15    
        99.19       99.22       99.25       99.28       99.31       99.34       99.37       99.40       99.43       99.46    
        99.49       99.52       99.55       99.58       99.61       99.65       99.69       99.74       99.80       99.88    
        100.0    
  20    100.0       99.23       98.72       98.35       98.05       97.79       97.56       97.34       97.14       96.94    
        96.74       96.54       96.35       96.15       95.95       95.76       95.57       95.38       95.20       95.03    
        94.87       94.73       94.61       94.52       94.46       94.43       94.43       94.47       94.53       94.62    
        94.73       94.85       94.99       95.14       95.30       95.46       95.62       95.78       95.93       96.08    
        96.23       96.37       96.51       96.65       96.77       96.90       97.01       97.13       97.23       97.34    
        97.44       97.53       97.62       97.71       97.79       97.87       97.95       98.03       98.10       98.17    
        98.23       98.30       98.36       98.42       98.47       98.53       98.58       98.63       98.68       98.73    
        98.78       98.82       98.87       98.91       98.95       98.99       99.03       99.06       99.10       99.14    
        99.17       99.20       99.24       99.27       99.30       99.33       99.36       99.39       99.42       99.45    
        99.48       99.51       99.54       99.57       99.60       99.64       99.68       99.73       99.79       99.87    
        100.0    
  21    100.0       99.22       98.70       98.32       98.02       97.75       97.52       97.29       97.08       96.87    
        96.67       96.47       96.26       96.06       95.85       95.65       95.44       95.24       95.05       94.87    
        94.70       94.55       94.43       94.33       94.26       94.23       94.23       94.27       94.34       94.43    
        94.55       94.69       94.84       95.00       95.17       95.34       95.51       95.67       95.84       96.00    
        96.15       96.30       96.44       96.58       96.71       96.84       96.96       97.07       97.18       97.29    
        97.39       97.49       97.58       97.67       97.76       97.84       97.92       97.99       98.07       98.13    
        98.20       98.27       98.33       98.39       98.45       98.50       98.56       98.61       98.66       98.71    
        98.76       98.80       98.85       98.89       98.93       98.97       99.01       99.05       99.08       99.12    
        99.15       99.19       99.22       99.25       99.29       99.32       99.35       99.38       99.41       99.44    
        99.47       99.50       99.53       99.56       99.60       99.63       99.68       99.73       99.79       99.87    
        100.0    
  22    100.0       99.20       98.68       98.30       97.99       97.72       97.48       97.25       97.03       96.82    
        96.61       96.40       96.19       95.98       95.76       95.55       95.34       95.13       94.92       94.73    
        94.55       94.39       94.26       94.15       94.08       94.05       94.05       94.09       94.17       94.27    
        94.40       94.55       94.71       94.88       95.06       95.23       95.41       95.58       95.76       95.92    
        96.08       96.23       96.38       96.52       96.66       96.79       96.91       97.03       97.14       97.25    
        97.35       97.45       97.54       97.64       97.72       97.81       97.89       97.96       98.04       98.11    
        98.17       98.24       98.30       98.36       98.42       98.48       98.53       98.59       98.64       98.69    
        98.74       98.78       98.83       98.87       98.91       98.95       98.99       99.03       99.07       99.11    
        99.14       99.18       99.21       99.24       99.27       99.31       99.34       99.37       99.40       99.43    
        99.46       99.49       99.52       99.56       99.59       99.63       99.67       99.72       99.78       99.87    
        100.0    
  23    100.0       99.20       98.67       98.28       97.96       97.69       97.44       97.21       96.99       96.77    
        96.56       96.34       96.13       95.91       95.69       95.47       95.25       95.03       94.82       94.61    
        94.43       94.26       94.12       94.00       93.93       93.89       93.90       93.94       94.02       94.14    
        94.27       94.43       94.60       94.78       94.96       95.15       95.33       95.51       95.69       95.86    
        96.02       96.18       96.33       96.47       96.61       96.74       96.87       96.99       97.10       97.21    
        97.32       97.42       97.51       97.60       97.69       97.78       97.86       97.93       98.01       98.08    
        98.15       98.22       98.28       98.34       98.40       98.46       98.51       98.57       98.62       98.67    
        98.72       98.76       98.81       98.85       98.90       98.94       98.98       99.02       99.05       99.09    
        99.13       99.16       99.20       99.23       99.26       99.30       99.33       99.36       99.39       99.42    
        99.45       99.48       99.52       99.55       99.58       99.62       99.67       99.72       99.78       99.87    
        100.0    
  24    100.0       99.19       98.66       98.26       97.94       97.67       97.42       97.18       96.96       96.74    
        96.52       96.30       96.08       95.86       95.63       95.40       95.18       94.95       94.73       94.52    
        94.33       94.15       94.00       93.89       93.81       93.77       93.78       93.83       93.91       94.03    
        94.17       94.33       94.51       94.70       94.89       95.08       95.27       95.45       95.63       95.80    
        95.97       96.13       96.28       96.43       96.57       96.70       96.83       96.95       97.07       97.18    
        97.29       97.39       97.48       97.58       97.67       97.75       97.83       97.91       97.99       98.06    
        98.13       98.19       98.26       98.32       98.38       98.44       98.50       98.55       98.60       98.65    
        98.70       98.75       98.79       98.84       98.88       98.92       98.96       99.00       99.04       99.08    
        99.12       99.15       99.19       99.22       99.25       99.29       99.32       99.35       99.38       99.41    
        99.44       99.48       99.51       99.54       99.58       99.62       99.66       99.71       99.78       99.87    
        100.0    
  25    100.0       99.18       98.65       98.25       97.93       97.65       97.40       97.16       96.94       96.71    
        96.49       96.27       96.05       95.82       95.59       95.36       95.13       94.90       94.68       94.46    
        94.26       94.08       93.93       93.81       93.73       93.69       93.70       93.75       93.84       93.96    
        94.10       94.27       94.45       94.64       94.83       95.03       95.22       95.41       95.59       95.77    
        95.93       96.10       96.25       96.40       96.54       96.68       96.80       96.93       97.04       97.16    
        97.26       97.36       97.46       97.55       97.64       97.73       97.81       97.89       97.97       98.04    
        98.11       98.18       98.24       98.30       98.36       98.42       98.48       98.53       98.59       98.64    
        98.69       98.73       98.78       98.82       98.87       98.91       98.95       98.99       99.03       99.07    
        99.10       99.14       99.18       99.21       99.24       99.28       99.31       99.34       99.37       99.40    
        99.44       99.47       99.50       99.54       99.57       99.61       99.66       99.71       99.77       99.86    
        100.0    
  26    100.0       99.18       98.64       98.24       97.92       97.64       97.39       97.15       96.92       96.70    
        96.48       96.25       96.03       95.80       95.57       95.34       95.10       94.87       94.65       94.43    
        94.23       94.05       93.89       93.77       93.69       93.66       93.66       93.71       93.80       93.92    
        94.07       94.24       94.42       94.61       94.80       95.00       95.19       95.38       95.56       95.74    
        95.91       96.07       96.23       96.38       96.52       96.65       96.78       96.91       97.02       97.13    
        97.24       97.34       97.44       97.54       97.62       97.71       97.79       97.87       97.95       98.02    
        98.09       98.16       98.22       98.29       98.35       98.41       98.46       98.52       98.57       98.62    
        98.67       98.72       98.77       98.81       98.86       98.90       98.94       98.98       99.02       99.06    
        99.09       99.13       99.17       99.20       99.23       99.27       99.30       99.33       99.37       99.40    
        99.43       99.46       99.50       99.53       99.57       99.61       99.65       99.71       99.77       99.86    
        100.0    
  27    100.0       99.18       98.64       98.24       97.92       97.64       97.38       97.15       96.92       96.69    
        96.47       96.25       96.02       95.80       95.57       95.34       95.10       94.87       94.65       94.43    
        94.23       94.05       93.90       93.78       93.70       93.66       93.67       93.72       93.80       93.92    
        94.07       94.23       94.42       94.60       94.80       94.99       95.18       95.37       95.55       95.73    
        95.90       96.06       96.22       96.36       96.51       96.64       96.77       96.89       97.01       97.12    
        97.23       97.33       97.43       97.52       97.61       97.70       97.78       97.86       97.93       98.01    
        98.08       98.15       98.21       98.27       98.34       98.39       98.45       98.51       98.56       98.61    
        98.66       98.71       98.76       98.80       98.84       98.89       98.93       98.97       99.01       99.05    
        99.08       99.12       99.16       99.19       99.23       99.26       99.29       99.33       99.36       99.39    
        99.42       99.46       99.49       99.53       99.56       99.60       99.65       99.70       99.77       99.86    
        100.0    
  28    100.0       99.18       98.64       98.24       97.92       97.64       97.39       97.15       96.92       96.70    
        96.48       96.26       96.04       95.81       95.58       95.35       95.12       94.90       94.68       94.47    
        94.27       94.09       93.94       93.83       93.75       93.71       93.72       93.76       93.84       93.96    
        94.10       94.26       94.44       94.63       94.82       95.01       95.19       95.38       95.56       95.73    
        95.90       96.06       96.21       96.36       96.50       96.63       96.76       96.88       97.00       97.11    
        97.22       97.32       97.42       97.51       97.60       97.69       97.77       97.85       97.92       98.00    
        98.07       98.13       98.20       98.26       98.32       98.38       98.44       98.49       98.55       98.60    
        98.65       98.70       98.75       98.79       98.84       98.88       98.92       98.96       99.00       99.04    
        99.08       99.11       99.15       99.18       99.22       99.25       99.29       99.32       99.35       99.39    
        99.42       99.45       99.49       99.52       99.56       99.60       99.65       99.70       99.77       99.86    
        100.0    
  29    100.0       99.18       98.64       98.25       97.92       97.65       97.40       97.16       96.94       96.72    
        96.50       96.28       96.06       95.84       95.62       95.39       95.17       94.95       94.73       94.53    
        94.34       94.17       94.02       93.91       93.84       93.80       93.80       93.84       93.92       94.03    
        94.17       94.32       94.49       94.67       94.86       95.04       95.22       95.40       95.58       95.75    
        95.91       96.07       96.22       96.37       96.50       96.64       96.76       96.88       97.00       97.11    
        97.21       97.31       97.41       97.50       97.59       97.68       97.76       97.84       97.91       97.99    
        98.06       98.13       98.19       98.25       98.32       98.37       98.43       98.49       98.54       98.59    
        98.64       98.69       98.74       98.78       98.83       98.87       98.91       98.95       98.99       99.03    
        99.07       99.11       99.14       99.18       99.21       99.25       99.28       99.31       99.35       99.38    
        99.41       99.45       99.48       99.52       99.55       99.60       99.64       99.70       99.77       99.86    
        100.0    
  30    100.0       99.19       98.65       98.26       97.94       97.66       97.41       97.18       96.96       96.74    
        96.53       96.31       96.10       95.88       95.66       95.45       95.23       95.02       94.81       94.62    
        94.43       94.27       94.14       94.03       93.96       93.92       93.92       93.96       94.03       94.14    
        94.26       94.41       94.57       94.74       94.91       95.09       95.27       95.44       95.61       95.78    
        95.94       96.09       96.24       96.38       96.51       96.64       96.77       96.89       97.00       97.11    
        97.21       97.31       97.41       97.50       97.59       97.67       97.76       97.83       97.91       97.98    
        98.05       98.12       98.18       98.25       98.31       98.37       98.42       98.48       98.53       98.58    
        98.63       98.68       98.73       98.78       98.82       98.86       98.91       98.95       98.99       99.02    
        99.06       99.10       99.14       99.17       99.21       99.24       99.28       99.31       99.34       99.38    
        99.41       99.44       99.48       99.51       99.55       99.59       99.64       99.69       99.76       99.86    
        100.0    
  31    100.0       99.19       98.66       98.27       97.95       97.68       97.44       97.21       96.99       96.78    
        96.57       96.36       96.15       95.94       95.73       95.52       95.31       95.11       94.91       94.73    
        94.55       94.40       94.27       94.17       94.10       94.07       94.07       94.10       94.17       94.26    
        94.38       94.52       94.67       94.83       94.99       95.16       95.33       95.49       95.66       95.82    
        95.97       96.12       96.26       96.40       96.53       96.66       96.78       96.90       97.01       97.12    
        97.22       97.32       97.41       97.50       97.59       97.67       97.75       97.83       97.91       97.98    
        98.05       98.12       98.18       98.24       98.30       98.36       98.42       98.47       98.53       98.58    
        98.63       98.68       98.72       98.77       98.81       98.86       98.90       98.94       98.98       99.02    
        99.06       99.09       99.13       99.17       99.20       99.24       99.27       99.30       99.34       99.37    
        99.40       99.44       99.47       99.51       99.55       99.59       99.64       99.69       99.76       99.86    
        100.0    
  32    100.0       99.20       98.67       98.29       97.98       97.71       97.47       97.24       97.03       96.82    
        96.61       96.41       96.21       96.01       95.80       95.60       95.41       95.21       95.03       94.85    
        94.69       94.55       94.43       94.33       94.27       94.24       94.23       94.26       94.32       94.41    
        94.52       94.64       94.78       94.93       95.08       95.24       95.40       95.56       95.71       95.87    
        96.01       96.16       96.30       96.43       96.56       96.68       96.80       96.91       97.02       97.13    
        97.23       97.33       97.42       97.51       97.59       97.68       97.76       97.83       97.91       97.98    
        98.05       98.11       98.18       98.24       98.30       98.36       98.41       98.47       98.52       98.57    
        98.62       98.67       98.72       98.76       98.81       98.85       98.89       98.94       98.98       99.01    
        99.05       99.09       99.13       99.16       99.20       99.23       99.27       99.30       99.33       99.37    
        99.40       99.44       99.47       99.51       99.55       99.59       99.64       99.69       99.76       99.85    
        100.0    
  33    100.0       99.21       98.69       98.31       98.00       97.74       97.50       97.28       97.07       96.87    
        96.67       96.47       96.28       96.08       95.89       95.70       95.51       95.33       95.16       94.99    
        94.84       94.71       94.60       94.51       94.45       94.42       94.42       94.44       94.49       94.57    
        94.67       94.78       94.91       95.05       95.19       95.34       95.49       95.63       95.78       95.93    
        96.07       96.20       96.34       96.47       96.59       96.71       96.82       96.93       97.04       97.14    
        97.24       97.34       97.43       97.52       97.60       97.68       97.76       97.84       97.91       97.98    
        98.05       98.11       98.18       98.24       98.30       98.36       98.41       98.47       98.52       98.57    
        98.62       98.67       98.72       98.76       98.81       98.85       98.89       98.93       98.97       99.01    
        99.05       99.09       99.12       99.16       99.19       99.23       99.26       99.30       99.33       99.36    
        99.40       99.43       99.47       99.50       99.54       99.59       99.63       99.69       99.76       99.85    
        100.0    
  34    100.0       99.22       98.71       98.33       98.03       97.77       97.54       97.33       97.12       96.92    
        96.73       96.54       96.36       96.17       95.99       95.81       95.63       95.46       95.30       95.14    
        95.00       94.88       94.78       94.70       94.64       94.61       94.60       94.63       94.67       94.74    
        94.83       94.93       95.05       95.17       95.30       95.44       95.58       95.72       95.86       95.99    
        96.13       96.26       96.38       96.51       96.63       96.74       96.85       96.96       97.06       97.16    
        97.26       97.35       97.44       97.53       97.61       97.69       97.77       97.84       97.92       97.98    
        98.05       98.12       98.18       98.24       98.30       98.36       98.41       98.47       98.52       98.57    
        98.62       98.67       98.71       98.76       98.80       98.85       98.89       98.93       98.97       99.01    
        99.05       99.08       99.12       99.16       99.19       99.23       99.26       99.29       99.33       99.36    
        99.40       99.43       99.47       99.50       99.54       99.58       99.63       99.69       99.76       99.85    
        100.0    
  35    100.0       99.23       98.73       98.36       98.06       97.81       97.58       97.37       97.18       96.99    
        96.80       96.62       96.44       96.26       96.09       95.92       95.75       95.59       95.44       95.30    
        95.17       95.06       94.96       94.89       94.83       94.80       94.80       94.82       94.86       94.91    
        94.99       95.08       95.19       95.30       95.42       95.55       95.68       95.81       95.94       96.07    
        96.19       96.32       96.44       96.56       96.67       96.78       96.89       96.99       97.09       97.19    
        97.28       97.37       97.46       97.54       97.62       97.70       97.78       97.85       97.92       97.99    
        98.06       98.12       98.18       98.24       98.30       98.36       98.41       98.47       98.52       98.57    
        98.62       98.67       98.71       98.76       98.80       98.85       98.89       98.93       98.97       99.01    
        99.04       99.08       99.12       99.15       99.19       99.22       99.26       99.29       99.33       99.36    
        99.39       99.43       99.46       99.50       99.54       99.58       99.63       99.69       99.76       99.85    
        100.0    
  36    100.0       99.25       98.75       98.39       98.10       97.85       97.63       97.43       97.24       97.05    
        96.87       96.70       96.53       96.36       96.20       96.04       95.88       95.73       95.59       95.46    
        95.34       95.23       95.15       95.08       95.03       95.00       94.99       95.01       95.04       95.09    
        95.16       95.24       95.34       95.44       95.55       95.66       95.78       95.90       96.02       96.14    
        96.26       96.38       96.50       96.61       96.72       96.82       96.93       97.03       97.12       97.22    
        97.31       97.39       97.48       97.56       97.64       97.72       97.79       97.86       97.93       98.00    
        98.07       98.13       98.19       98.25       98.31       98.36       98.42       98.47       98.52       98.57    
        98.62       98.67       98.71       98.76       98.80       98.85       98.89       98.93       98.97       99.01    
        99.04       99.08       99.12       99.15       99.19       99.22       99.26       99.29       99.32       99.36    
        99.39       99.43       99.46       99.50       99.54       99.58       99.63       99.69       99.76       99.85    
        100.0    
  37    100.0       99.26       98.78       98.42       98.14       97.90       97.68       97.48       97.30       97.12    
        96.95       96.78       96.62       96.46       96.31       96.15       96.01       95.87       95.74       95.62    
        95.51       95.41       95.33       95.27       95.22       95.19       95.18       95.19       95.22       95.27    
        95.33       95.40       95.49       95.58       95.68       95.78       95.89       96.00       96.12       96.23    
        96.34       96.45       96.56       96.66       96.77       96.87       96.97       97.06       97.16       97.25    
        97.34       97.42       97.50       97.58       97.66       97.73       97.81       97.88       97.95       98.01    
        98.08       98.14       98.20       98.26       98.31       98.37       98.42       98.48       98.53       98.58    
        98.62       98.67       98.72       98.76       98.80       98.85       98.89       98.93       98.97       99.01    
        99.04       99.08       99.12       99.15       99.19       99.22       99.26       99.29       99.32       99.36    
        99.39       99.43       99.46       99.50       99.54       99.58       99.63       99.69       99.76       99.85    
        100.0    
  38    100.0       99.28       98.80       98.45       98.18       97.94       97.73       97.54       97.36       97.19    
        97.03       96.87       96.72       96.56       96.42       96.28       96.14       96.01       95.89       95.78    
        95.67       95.58       95.51       95.45       95.41       95.38       95.37       95.38       95.40       95.44    
        95.49       95.56       95.63       95.72       95.81       95.90       96.00       96.11       96.21       96.31    
        96.42       96.52       96.62       96.72       96.82       96.92       97.01       97.11       97.19       97.28    
        97.37       97.45       97.53       97.61       97.68       97.75       97.82       97.89       97.96       98.02    
        98.09       98.15       98.21       98.27       98.32       98.38       98.43       98.48       98.53       98.58    
        98.63       98.67       98.72       98.76       98.81       98.85       98.89       98.93       98.97       99.01    
        99.04       99.08       99.12       99.15       99.19       99.22       99.26       99.29       99.32       99.36    
        99.39       99.43       99.46       99.50       99.54       99.58       99.63       99.68       99.76       99.85    
        100.0    
  39    100.0       99.29       98.83       98.49       98.22       97.99       97.79       97.60       97.43       97.27    
        97.11       96.96       96.81       96.67       96.53       96.40       96.27       96.15       96.04       95.93    
        95.84       95.76       95.69       95.63       95.59       95.56       95.55       95.56       95.58       95.61    
        95.66       95.71       95.78       95.86       95.94       96.02       96.12       96.21       96.30       96.40    
        96.50       96.60       96.69       96.79       96.88       96.97       97.06       97.15       97.23       97.32    
        97.40       97.48       97.56       97.63       97.70       97.78       97.84       97.91       97.98       98.04    
        98.10       98.16       98.22       98.28       98.33       98.38       98.44       98.49       98.54       98.59    
        98.63       98.68       98.72       98.77       98.81       98.85       98.89       98.93       98.97       99.01    
        99.05       99.08       99.12       99.15       99.19       99.22       99.26       99.29       99.32       99.36    
        99.39       99.43       99.46       99.50       99.54       99.58       99.63       99.68       99.76       99.85    
        100.0    
  40    100.0       99.31       98.86       98.53       98.26       98.04       97.84       97.67       97.50       97.34    
        97.19       97.05       96.91       96.77       96.64       96.52       96.40       96.29       96.18       96.08    
        96.00       95.92       95.86       95.80       95.77       95.74       95.73       95.73       95.75       95.78    
        95.82       95.87       95.93       95.99       96.07       96.14       96.23       96.31       96.40       96.49    
        96.58       96.67       96.76       96.85       96.94       97.03       97.11       97.20       97.28       97.36    
        97.44       97.51       97.59       97.66       97.73       97.80       97.87       97.93       97.99       98.06    
        98.12       98.18       98.23       98.29       98.34       98.39       98.45       98.50       98.55       98.59    
        98.64       98.68       98.73       98.77       98.81       98.86       98.90       98.93       98.97       99.01    
        99.05       99.08       99.12       99.16       99.19       99.22       99.26       99.29       99.32       99.36    
        99.39       99.43       99.46       99.50       99.54       99.58       99.63       99.68       99.76       99.85    
        100.0    
  41    100.0       99.33       98.88       98.56       98.31       98.09       97.90       97.73       97.57       97.42    
        97.27       97.14       97.00       96.88       96.75       96.64       96.52       96.42       96.32       96.23    
        96.15       96.08       96.02       95.97       95.93       95.91       95.90       95.90       95.91       95.94    
        95.97       96.01       96.07       96.13       96.19       96.26       96.34       96.42       96.50       96.58    
        96.67       96.75       96.83       96.92       97.00       97.08       97.16       97.24       97.32       97.40    
        97.47       97.55       97.62       97.69       97.76       97.82       97.89       97.95       98.01       98.08    
        98.13       98.19       98.25       98.30       98.35       98.41       98.46       98.51       98.55       98.60    
        98.65       98.69       98.73       98.78       98.82       98.86       98.90       98.94       98.98       99.01    
        99.05       99.09       99.12       99.16       99.19       99.23       99.26       99.29       99.33       99.36    
        99.39       99.43       99.46       99.50       99.54       99.58       99.63       99.69       99.76       99.85    
        100.0    
  42    100.0       99.34       98.91       98.60       98.35       98.14       97.96       97.79       97.64       97.49    
        97.36       97.23       97.10       96.98       96.86       96.75       96.65       96.55       96.46       96.37    
        96.30       96.23       96.18       96.13       96.10       96.07       96.06       96.06       96.07       96.09    
        96.12       96.16       96.20       96.26       96.32       96.38       96.45       96.52       96.60       96.67    
        96.75       96.83       96.91       96.99       97.06       97.14       97.22       97.29       97.37       97.44    
        97.51       97.58       97.65       97.72       97.79       97.85       97.91       97.98       98.04       98.10    
        98.15       98.21       98.26       98.32       98.37       98.42       98.47       98.52       98.56       98.61    
        98.66       98.70       98.74       98.78       98.83       98.87       98.91       98.94       98.98       99.02    
        99.06       99.09       99.13       99.16       99.19       99.23       99.26       99.30       99.33       99.36    
        99.39       99.43       99.46       99.50       99.54       99.58       99.63       99.69       99.76       99.85    
        100.0    
  43    100.0       99.36       98.94       98.64       98.40       98.20       98.02       97.86       97.71       97.57    
        97.44       97.31       97.20       97.08       96.97       96.87       96.77       96.68       96.59       96.51    
        96.44       96.38       96.33       96.28       96.25       96.23       96.22       96.21       96.22       96.24    
        96.26       96.30       96.34       96.38       96.44       96.50       96.56       96.62       96.69       96.76    
        96.83       96.91       96.98       97.05       97.13       97.20       97.27       97.35       97.42       97.49    
        97.56       97.62       97.69       97.75       97.82       97.88       97.94       98.00       98.06       98.12    
        98.17       98.23       98.28       98.33       98.38       98.43       98.48       98.53       98.58       98.62    
        98.66       98.71       98.75       98.79       98.83       98.87       98.91       98.95       98.99       99.02    
        99.06       99.09       99.13       99.16       99.20       99.23       99.26       99.30       99.33       99.36    
        99.40       99.43       99.47       99.50       99.54       99.58       99.63       99.69       99.76       99.85    
        100.0    
  44    100.0       99.38       98.97       98.68       98.44       98.25       98.08       97.92       97.78       97.65    
        97.52       97.40       97.29       97.18       97.08       96.98       96.89       96.80       96.72       96.65    
        96.58       96.52       96.47       96.43       96.40       96.38       96.36       96.36       96.37       96.38    
        96.40       96.43       96.47       96.51       96.56       96.61       96.66       96.72       96.79       96.85    
        96.92       96.99       97.05       97.12       97.19       97.26       97.33       97.40       97.47       97.53    
        97.60       97.66       97.73       97.79       97.85       97.91       97.97       98.03       98.08       98.14    
        98.19       98.25       98.30       98.35       98.40       98.45       98.50       98.54       98.59       98.63    
        98.68       98.72       98.76       98.80       98.84       98.88       98.92       98.96       98.99       99.03    
        99.06       99.10       99.13       99.17       99.20       99.23       99.27       99.30       99.33       99.37    
        99.40       99.43       99.47       99.50       99.54       99.58       99.63       99.69       99.76       99.85    
        100.0    
  45    100.0       99.40       99.00       98.72       98.49       98.30       98.13       97.98       97.85       97.72    
        97.60       97.49       97.38       97.28       97.18       97.09       97.00       96.92       96.84       96.77    
        96.71       96.66       96.61       96.57       96.54       96.52       96.51       96.50       96.50       96.51    
        96.53       96.56       96.59       96.63       96.67       96.72       96.77       96.82       96.88       96.94    
        97.00       97.06       97.13       97.19       97.26       97.32       97.39       97.45       97.52       97.58    
        97.64       97.70       97.76       97.82       97.88       97.94       98.00       98.05       98.11       98.16    
        98.22       98.27       98.32       98.37       98.42       98.46       98.51       98.56       98.60       98.64    
        98.69       98.73       98.77       98.81       98.85       98.89       98.93       98.96       99.00       99.04    
        99.07       99.11       99.14       99.17       99.21       99.24       99.27       99.30       99.34       99.37    
        99.40       99.44       99.47       99.51       99.54       99.59       99.63       99.69       99.76       99.85    
        100.0    
  46    100.0       99.41       99.03       98.75       98.53       98.35       98.19       98.05       97.92       97.79    
        97.68       97.57       97.47       97.37       97.28       97.19       97.11       97.03       96.96       96.90    
        96.84       96.79       96.74       96.70       96.68       96.65       96.64       96.63       96.64       96.64    
        96.66       96.68       96.71       96.74       96.78       96.82       96.87       96.92       96.97       97.03    
        97.08       97.14       97.20       97.26       97.32       97.38       97.44       97.51       97.57       97.63    
        97.69       97.75       97.80       97.86       97.92       97.97       98.03       98.08       98.14       98.19    
        98.24       98.29       98.34       98.39       98.43       98.48       98.53       98.57       98.61       98.66    
        98.70       98.74       98.78       98.82       98.86       98.90       98.93       98.97       99.01       99.04    
        99.08       99.11       99.14       99.18       99.21       99.24       99.28       99.31       99.34       99.37    
        99.41       99.44       99.47       99.51       99.55       99.59       99.64       99.69       99.76       99.85    
        100.0    
  47    100.0       99.43       99.06       98.79       98.58       98.40       98.25       98.11       97.98       97.87    
        97.76       97.65       97.56       97.46       97.37       97.29       97.21       97.14       97.07       97.01    
        96.96       96.91       96.87       96.83       96.80       96.78       96.77       96.76       96.76       96.77    
        96.78       96.80       96.82       96.85       96.89       96.93       96.97       97.01       97.06       97.11    
        97.16       97.22       97.27       97.33       97.39       97.44       97.50       97.56       97.62       97.67    
        97.73       97.79       97.84       97.90       97.95       98.01       98.06       98.11       98.16       98.21    
        98.26       98.31       98.36       98.41       98.45       98.50       98.54       98.59       98.63       98.67    
        98.71       98.75       98.79       98.83       98.87       98.91       98.94       98.98       99.01       99.05    
        99.08       99.12       99.15       99.18       99.22       99.25       99.28       99.31       99.34       99.38    
        99.41       99.44       99.48       99.51       99.55       99.59       99.64       99.69       99.76       99.86    
        100.0    
  48    100.0       99.45       99.09       98.83       98.62       98.45       98.30       98.17       98.05       97.94    
        97.83       97.73       97.64       97.55       97.47       97.39       97.32       97.25       97.18       97.13    
        97.07       97.03       96.99       96.95       96.93       96.91       96.89       96.88       96.88       96.89    
        96.90       96.91       96.93       96.96       96.99       97.03       97.06       97.11       97.15       97.20    
        97.24       97.29       97.35       97.40       97.45       97.51       97.56       97.61       97.67       97.72    
        97.78       97.83       97.88       97.94       97.99       98.04       98.09       98.14       98.19       98.24    
        98.29       98.34       98.38       98.43       98.47       98.52       98.56       98.60       98.64       98.69    
        98.73       98.77       98.80       98.84       98.88       98.92       98.95       98.99       99.02       99.06    
        99.09       99.12       99.16       99.19       99.22       99.25       99.29       99.32       99.35       99.38    
        99.41       99.45       99.48       99.51       99.55       99.59       99.64       99.69       99.76       99.86    
        100.0    
  49    100.0       99.47       99.12       98.87       98.67       98.50       98.36       98.23       98.11       98.01    
        97.91       97.81       97.72       97.64       97.56       97.48       97.41       97.35       97.29       97.23    
        97.18       97.14       97.10       97.07       97.04       97.02       97.01       97.00       97.00       97.00    
        97.01       97.02       97.04       97.06       97.09       97.12       97.16       97.19       97.23       97.28    
        97.32       97.37       97.42       97.47       97.52       97.57       97.62       97.67       97.72       97.77    
        97.82       97.87       97.93       97.98       98.03       98.08       98.13       98.17       98.22       98.27    
        98.32       98.36       98.41       98.45       98.49       98.54       98.58       98.62       98.66       98.70    
        98.74       98.78       98.82       98.85       98.89       98.93       98.96       99.00       99.03       99.07    
        99.10       99.13       99.17       99.20       99.23       99.26       99.29       99.32       99.35       99.39    
        99.42       99.45       99.48       99.52       99.56       99.60       99.64       99.70       99.76       99.86    
        100.0    
  50    100.0       99.48       99.15       98.90       98.71       98.55       98.41       98.29       98.18       98.07    
        97.98       97.89       97.80       97.72       97.65       97.57       97.51       97.45       97.39       97.34    
        97.29       97.25       97.21       97.18       97.16       97.13       97.12       97.11       97.11       97.11    
        97.12       97.13       97.14       97.16       97.19       97.22       97.25       97.28       97.32       97.36    
        97.40       97.44       97.49       97.53       97.58       97.63       97.67       97.72       97.77       97.82    
        97.87       97.92       97.97       98.02       98.06       98.11       98.16       98.21       98.25       98.30    
        98.34       98.39       98.43       98.47       98.52       98.56       98.60       98.64       98.68       98.72    
        98.76       98.79       98.83       98.87       98.90       98.94       98.97       99.01       99.04       99.08    
        99.11       99.14       99.17       99.20       99.24       99.27       99.30       99.33       99.36       99.39    
        99.42       99.45       99.49       99.52       99.56       99.60       99.64       99.70       99.77       99.86    
        100.0    
  51    100.0       99.50       99.17       98.94       98.75       98.60       98.46       98.35       98.24       98.14    
        98.05       97.96       97.88       97.80       97.73       97.66       97.60       97.54       97.49       97.44    
        97.39       97.35       97.32       97.29       97.26       97.24       97.23       97.22       97.21       97.21    
        97.22       97.23       97.24       97.26       97.28       97.31       97.34       97.37       97.40       97.44    
        97.47       97.51       97.56       97.60       97.64       97.69       97.73       97.78       97.82       97.87    
        97.92       97.96       98.01       98.06       98.10       98.15       98.19       98.24       98.28       98.33    
        98.37       98.41       98.45       98.50       98.54       98.58       98.62       98.66       98.70       98.73    
        98.77       98.81       98.85       98.88       98.92       98.95       98.99       99.02       99.05       99.09    
        99.12       99.15       99.18       99.21       99.24       99.27       99.30       99.33       99.37       99.40    
        99.43       99.46       99.49       99.53       99.56       99.60       99.65       99.70       99.77       99.86    
        100.0    
  52    100.0       99.52       99.20       98.97       98.79       98.64       98.52       98.40       98.30       98.20    
        98.11       98.03       97.95       97.88       97.81       97.75       97.69       97.63       97.58       97.53    
        97.49       97.45       97.42       97.39       97.36       97.34       97.33       97.32       97.31       97.31    
        97.32       97.33       97.34       97.35       97.37       97.39       97.42       97.45       97.48       97.51    
        97.55       97.58       97.62       97.66       97.70       97.75       97.79       97.83       97.87       97.92    
        97.96       98.01       98.05       98.10       98.14       98.18       98.23       98.27       98.31       98.36    
        98.40       98.44       98.48       98.52       98.56       98.60       98.64       98.68       98.71       98.75    
        98.79       98.82       98.86       98.90       98.93       98.96       99.00       99.03       99.06       99.10    
        99.13       99.16       99.19       99.22       99.25       99.28       99.31       99.34       99.37       99.40    
        99.43       99.46       99.50       99.53       99.57       99.61       99.65       99.70       99.77       99.86    
        100.0    
  53    100.0       99.53       99.23       99.01       98.83       98.69       98.57       98.46       98.36       98.26    
        98.18       98.10       98.03       97.96       97.89       97.83       97.77       97.72       97.67       97.62    
        97.58       97.54       97.51       97.48       97.46       97.44       97.43       97.42       97.41       97.41    
        97.41       97.42       97.43       97.44       97.46       97.48       97.50       97.53       97.56       97.59    
        97.62       97.65       97.69       97.73       97.76       97.80       97.84       97.88       97.93       97.97    
        98.01       98.05       98.09       98.14       98.18       98.22       98.26       98.30       98.34       98.38    
        98.43       98.47       98.51       98.54       98.58       98.62       98.66       98.70       98.73       98.77    
        98.81       98.84       98.88       98.91       98.94       98.98       99.01       99.04       99.07       99.11    
        99.14       99.17       99.20       99.23       99.26       99.29       99.32       99.35       99.38       99.41    
        99.44       99.47       99.50       99.53       99.57       99.61       99.65       99.71       99.77       99.86    
        100.0    
  54    100.0       99.55       99.25       99.04       98.87       98.73       98.61       98.51       98.41       98.32    
        98.24       98.17       98.10       98.03       97.97       97.91       97.85       97.80       97.75       97.71    
        97.67       97.64       97.60       97.58       97.55       97.54       97.52       97.51       97.50       97.50    
        97.50       97.51       97.52       97.53       97.54       97.56       97.58       97.61       97.63       97.66    
        97.69       97.72       97.75       97.79       97.82       97.86       97.90       97.94       97.98       98.02    
        98.06       98.10       98.14       98.18       98.22       98.26       98.30       98.34       98.38       98.42    
        98.45       98.49       98.53       98.57       98.61       98.64       98.68       98.72       98.75       98.79    
        98.82       98.86       98.89       98.93       98.96       98.99       99.02       99.05       99.09       99.12    
        99.15       99.18       99.21       99.24       99.27       99.30       99.33       99.36       99.38       99.41    
[...]
        99.49       99.48       99.47       99.45       99.44       99.42       99.41       99.40       99.39       99.38    
        99.37       99.35       99.35       99.34       99.33       99.32       99.31       99.31       99.30       99.30    
        99.29       99.29       99.28       99.28       99.28       99.28       99.28       99.28       99.28       99.28    
        99.28       99.28       99.28       99.29       99.29       99.29       99.30       99.30       99.31       99.32    
        99.32       99.33       99.34       99.34       99.35       99.36       99.37       99.37       99.38       99.39    
        99.40       99.41       99.42       99.43       99.44       99.45       99.46       99.47       99.48       99.49    
        99.50       99.51       99.52       99.54       99.55       99.56       99.57       99.58       99.59       99.60    
        99.61       99.63       99.64       99.65       99.66       99.67       99.68       99.69       99.70       99.71    
        99.72       99.73       99.74       99.75       99.76       99.76       99.77       99.78       99.78       99.78    
        99.78    
  89    99.61       99.60       99.60       99.59       99.58       99.58       99.56       99.55       99.54       99.53    
        99.51       99.50       99.49       99.47       99.46       99.45       99.44       99.42       99.41       99.40    
        99.39       99.38       99.37       99.36       99.36       99.35       99.34       99.34       99.33       99.32    
        99.32       99.32       99.31       99.31       99.31       99.31       99.31       99.31       99.31       99.31    
        99.31       99.31       99.31       99.32       99.32       99.32       99.33       99.33       99.34       99.34    
        99.35       99.35       99.36       99.37       99.38       99.38       99.39       99.40       99.41       99.42    
        99.42       99.43       99.44       99.45       99.46       99.47       99.48       99.49       99.50       99.51    
        99.52       99.53       99.54       99.55       99.56       99.57       99.58       99.60       99.61       99.62    
        99.63       99.64       99.65       99.66       99.67       99.68       99.69       99.70       99.71       99.72    
        99.73       99.74       99.75       99.76       99.77       99.77       99.78       99.78       99.79       99.79    
        99.79    
  90    99.62       99.62       99.62       99.61       99.60       99.59       99.58       99.57       99.56       99.55    
        99.53       99.52       99.51       99.50       99.48       99.47       99.46       99.45       99.44       99.43    
        99.42       99.41       99.40       99.39       99.38       99.38       99.37       99.36       99.36       99.35    
        99.35       99.35       99.34       99.34       99.34       99.34       99.34       99.33       99.34       99.34    
        99.34       99.34       99.34       99.34       99.35       99.35       99.35       99.36       99.36       99.37    
        99.37       99.38       99.39       99.39       99.40       99.41       99.41       99.42       99.43       99.44    
        99.45       99.45       99.46       99.47       99.48       99.49       99.50       99.51       99.52       99.53    
        99.54       99.55       99.56       99.57       99.58       99.59       99.60       99.61       99.62       99.63    
        99.64       99.65       99.66       99.67       99.68       99.69       99.70       99.71       99.72       99.73    
        99.74       99.75       99.76       99.77       99.77       99.78       99.79       99.79       99.79       99.80    
        99.80    
  91    99.64       99.63       99.63       99.62       99.62       99.61       99.60       99.59       99.58       99.57    
        99.55       99.54       99.53       99.52       99.51       99.49       99.48       99.47       99.46       99.45    
        99.44       99.43       99.42       99.42       99.41       99.40       99.40       99.39       99.38       99.38    
        99.38       99.37       99.37       99.37       99.37       99.36       99.36       99.36       99.36       99.36    
        99.36       99.37       99.37       99.37       99.37       99.38       99.38       99.38       99.39       99.39    
        99.40       99.40       99.41       99.42       99.42       99.43       99.44       99.44       99.45       99.46    
        99.47       99.48       99.48       99.49       99.50       99.51       99.52       99.53       99.54       99.55    
        99.56       99.57       99.58       99.59       99.59       99.60       99.61       99.62       99.63       99.64    
        99.65       99.66       99.67       99.68       99.69       99.70       99.71       99.72       99.73       99.74    
        99.75       99.76       99.77       99.77       99.78       99.79       99.79       99.80       99.80       99.80    
        99.80    
  92    99.65       99.65       99.64       99.64       99.63       99.62       99.61       99.60       99.59       99.58    
        99.57       99.56       99.55       99.54       99.53       99.52       99.50       99.49       99.48       99.47    
        99.47       99.46       99.45       99.44       99.43       99.43       99.42       99.42       99.41       99.41    
        99.40       99.40       99.40       99.39       99.39       99.39       99.39       99.39       99.39       99.39    
        99.39       99.39       99.39       99.40       99.40       99.40       99.41       99.41       99.41       99.42    
        99.42       99.43       99.43       99.44       99.45       99.45       99.46       99.47       99.47       99.48    
        99.49       99.50       99.50       99.51       99.52       99.53       99.54       99.55       99.55       99.56    
        99.57       99.58       99.59       99.60       99.61       99.62       99.63       99.64       99.65       99.66    
        99.67       99.68       99.69       99.69       99.70       99.71       99.72       99.73       99.74       99.75    
        99.76       99.77       99.77       99.78       99.79       99.79       99.80       99.80       99.81       99.81    
        99.81    
  93    99.66       99.66       99.66       99.65       99.65       99.64       99.63       99.62       99.61       99.60    
        99.59       99.58       99.57       99.56       99.55       99.53       99.52       99.51       99.51       99.50    
        99.49       99.48       99.47       99.46       99.46       99.45       99.44       99.44       99.43       99.43    
        99.43       99.42       99.42       99.42       99.42       99.41       99.41       99.41       99.41       99.41    
        99.41       99.42       99.42       99.42       99.42       99.43       99.43       99.43       99.44       99.44    
        99.45       99.45       99.46       99.46       99.47       99.47       99.48       99.49       99.49       99.50    
        99.51       99.52       99.52       99.53       99.54       99.55       99.55       99.56       99.57       99.58    
        99.59       99.60       99.61       99.62       99.62       99.63       99.64       99.65       99.66       99.67    
        99.68       99.69       99.70       99.71       99.71       99.72       99.73       99.74       99.75       99.76    
        99.77       99.77       99.78       99.79       99.79       99.80       99.81       99.81       99.81       99.81    
        99.82    
  94    99.68       99.67       99.67       99.67       99.66       99.65       99.64       99.63       99.62       99.61    
        99.60       99.59       99.58       99.57       99.56       99.55       99.54       99.53       99.52       99.52    
        99.51       99.50       99.49       99.49       99.48       99.47       99.47       99.46       99.46       99.45    
        99.45       99.45       99.44       99.44       99.44       99.44       99.44       99.44       99.44       99.44    
        99.44       99.44       99.44       99.44       99.44       99.45       99.45       99.45       99.46       99.46    
        99.47       99.47       99.48       99.48       99.49       99.49       99.50       99.51       99.51       99.52    
        99.53       99.53       99.54       99.55       99.56       99.56       99.57       99.58       99.59       99.60    
        99.60       99.61       99.62       99.63       99.64       99.65       99.65       99.66       99.67       99.68    
        99.69       99.70       99.71       99.72       99.72       99.73       99.74       99.75       99.76       99.77    
        99.77       99.78       99.79       99.79       99.80       99.81       99.81       99.82       99.82       99.82    
        99.82    
  95    99.69       99.68       99.68       99.68       99.67       99.66       99.66       99.65       99.64       99.63    
        99.62       99.61       99.60       99.59       99.58       99.57       99.56       99.55       99.54       99.53    
        99.53       99.52       99.51       99.51       99.50       99.49       99.49       99.48       99.48       99.47    
        99.47       99.47       99.46       99.46       99.46       99.46       99.46       99.46       99.46       99.46    
        99.46       99.46       99.46       99.46       99.47       99.47       99.47       99.47       99.48       99.48    
        99.49       99.49       99.50       99.50       99.51       99.51       99.52       99.52       99.53       99.54    
        99.54       99.55       99.56       99.56       99.57       99.58       99.59       99.59       99.60       99.61    
        99.62       99.63       99.63       99.64       99.65       99.66       99.67       99.67       99.68       99.69    
        99.70       99.71       99.72       99.72       99.73       99.74       99.75       99.76       99.77       99.77    
        99.78       99.79       99.79       99.80       99.81       99.81       99.82       99.82       99.82       99.83    
        99.83    
  96    99.70       99.69       99.69       99.69       99.68       99.67       99.67       99.66       99.65       99.64    
        99.63       99.62       99.61       99.60       99.59       99.59       99.58       99.57       99.56       99.55    
        99.54       99.54       99.53       99.52       99.52       99.51       99.51       99.50       99.50       99.49    
        99.49       99.49       99.48       99.48       99.48       99.48       99.48       99.48       99.48       99.48    
        99.48       99.48       99.48       99.48       99.48       99.49       99.49       99.49       99.50       99.50    
        99.50       99.51       99.51       99.52       99.52       99.53       99.53       99.54       99.55       99.55    
        99.56       99.56       99.57       99.58       99.58       99.59       99.60       99.61       99.61       99.62    
        99.63       99.64       99.65       99.65       99.66       99.67       99.68       99.68       99.69       99.70    
        99.71       99.72       99.73       99.73       99.74       99.75       99.76       99.76       99.77       99.78    
        99.79       99.79       99.80       99.81       99.81       99.82       99.82       99.83       99.83       99.83    
        99.83    
  97    99.70       99.70       99.70       99.70       99.69       99.68       99.68       99.67       99.66       99.65    
        99.64       99.63       99.62       99.62       99.61       99.60       99.59       99.58       99.57       99.57    
        99.56       99.55       99.54       99.54       99.53       99.53       99.52       99.52       99.51       99.51    
        99.50       99.50       99.50       99.50       99.50       99.49       99.49       99.49       99.49       99.49    
        99.49       99.49       99.50       99.50       99.50       99.50       99.50       99.51       99.51       99.51    
        99.52       99.52       99.53       99.53       99.54       99.54       99.55       99.55       99.56       99.56    
        99.57       99.58       99.58       99.59       99.60       99.60       99.61       99.62       99.63       99.63    
        99.64       99.65       99.66       99.66       99.67       99.68       99.69       99.69       99.70       99.71    
        99.72       99.73       99.73       99.74       99.75       99.76       99.76       99.77       99.78       99.79    
        99.79       99.80       99.81       99.81       99.82       99.82       99.83       99.83       99.83       99.83    
        99.83    
  98    99.71       99.71       99.71       99.70       99.70       99.69       99.68       99.68       99.67       99.66    
        99.65       99.64       99.63       99.63       99.62       99.61       99.60       99.59       99.58       99.58    
        99.57       99.56       99.56       99.55       99.54       99.54       99.53       99.53       99.53       99.52    
        99.52       99.52       99.51       99.51       99.51       99.51       99.51       99.51       99.51       99.51    
        99.51       99.51       99.51       99.51       99.51       99.52       99.52       99.52       99.52       99.53    
        99.53       99.54       99.54       99.54       99.55       99.55       99.56       99.56       99.57       99.58    
        99.58       99.59       99.59       99.60       99.61       99.61       99.62       99.63       99.63       99.64    
        99.65       99.66       99.66       99.67       99.68       99.69       99.69       99.70       99.71       99.72    
        99.72       99.73       99.74       99.75       99.75       99.76       99.77       99.78       99.78       99.79    
        99.80       99.80       99.81       99.82       99.82       99.83       99.83       99.83       99.84       99.84    
        99.84    
  99    99.72       99.71       99.71       99.71       99.70       99.70       99.69       99.68       99.68       99.67    
        99.66       99.65       99.64       99.63       99.63       99.62       99.61       99.60       99.59       99.59    
        99.58       99.57       99.57       99.56       99.55       99.55       99.54       99.54       99.54       99.53    
        99.53       99.53       99.52       99.52       99.52       99.52       99.52       99.52       99.52       99.52    
        99.52       99.52       99.52       99.52       99.52       99.53       99.53       99.53       99.53       99.54    
        99.54       99.54       99.55       99.55       99.56       99.56       99.57       99.57       99.58       99.58    
        99.59       99.60       99.60       99.61       99.62       99.62       99.63       99.64       99.64       99.65    
        99.66       99.66       99.67       99.68       99.69       99.69       99.70       99.71       99.71       99.72    
        99.73       99.74       99.74       99.75       99.76       99.77       99.77       99.78       99.79       99.79    
        99.80       99.81       99.81       99.82       99.82       99.83       99.83       99.84       99.84       99.84    
        99.84    
 100    99.72       99.72       99.72       99.71       99.71       99.70       99.70       99.69       99.68       99.67    
        99.66       99.66       99.65       99.64       99.63       99.62       99.61       99.61       99.60       99.59    
        99.59       99.58       99.57       99.57       99.56       99.56       99.55       99.55       99.54       99.54    
        99.54       99.53       99.53       99.53       99.53       99.53       99.52       99.52       99.52       99.52    
        99.52       99.53       99.53       99.53       99.53       99.53       99.53       99.54       99.54       99.54    
        99.55       99.55       99.56       99.56       99.56       99.57       99.57       99.58       99.58       99.59    
        99.60       99.60       99.61       99.61       99.62       99.63       99.63       99.64       99.65       99.65    
        99.66       99.67       99.68       99.68       99.69       99.70       99.70       99.71       99.72       99.73    
        99.73       99.74       99.75       99.76       99.76       99.77       99.78       99.78       99.79       99.80    
        99.80       99.81       99.81       99.82       99.83       99.83       99.83       99.84       99.84       99.84    
        99.84    
 101    99.72       99.72       99.72       99.71       99.71       99.70       99.70       99.69       99.68       99.67    
        99.67       99.66       99.65       99.64       99.63       99.63       99.62       99.61       99.60       99.60    
        99.59       99.58       99.58       99.57       99.56       99.56       99.55       99.55       99.55       99.54    
        99.54       99.54       99.53       99.53       99.53       99.53       99.53       99.53       99.53       99.53    
        99.53       99.53       99.53       99.53       99.53       99.54       99.54       99.54       99.54       99.55    
        99.55       99.55       99.56       99.56       99.57       99.57       99.58       99.58       99.59       99.59    
        99.60       99.60       99.61       99.62       99.62       99.63       99.64       99.64       99.65       99.66    
        99.66       99.67       99.68       99.68       99.69       99.70       99.71       99.71       99.72       99.73    
        99.74       99.74       99.75       99.76       99.76       99.77       99.78       99.78       99.79       99.80    
        99.80       99.81       99.82       99.82       99.83       99.83       99.83       99.84       99.84       99.84    
        99.84    

 HEAD WILL BE SAVED ON UNIT 1015 AT END OF TIME STEP    1, STRESS PERIOD    1


  VOLUME BUDGET FOR ENTIRE MODEL AT END OF TIME STEP    1, STRESS PERIOD   1
  ---------------------------------------------------------------------------------------------------

     CUMULATIVE VOLUME      L**3       RATES FOR THIS TIME STEP      L**3/T          PACKAGE NAME    
     ------------------                 ------------------------                     ----------------

           IN:                                      IN:
           ---                                      ---
                 WEL =           0.0000                   WEL =           0.0000     WEL_0                            
                RCHA =           0.0000                  RCHA =           0.0000     RCH                              
                 CHD =         973.4951                   CHD =         973.4951     CHD_0                            

            TOTAL IN =         973.4951              TOTAL IN =         973.4951

          OUT:                                     OUT:
          ----                                     ----
                 WEL =         979.3535                   WEL =         979.3535     WEL_0                            
                RCHA =           0.0000                  RCHA =           0.0000     RCH                              
                 CHD =           0.0000                   CHD =           0.0000     CHD_0                            

           TOTAL OUT =         979.3535             TOTAL OUT =         979.3535

            IN - OUT =          -5.8584              IN - OUT =          -5.8584

 PERCENT DISCREPANCY =          -0.60     PERCENT DISCREPANCY =          -0.60




         TIME SUMMARY AT END OF TIME STEP    1 IN STRESS PERIOD    1
                    SECONDS     MINUTES      HOURS       DAYS        YEARS
                    -----------------------------------------------------------
   TIME STEP LENGTH  86400.      1440.0      24.000      1.0000     2.73785E-03
 STRESS PERIOD TIME  86400.      1440.0      24.000      1.0000     2.73785E-03
         TOTAL TIME  86400.      1440.0      24.000      1.0000     2.73785E-03


end timestep

