                                   MODFLOW 6
                U.S. GEOLOGICAL SURVEY MODULAR HYDROLOGIC MODEL
                          GROUNDWATER FLOW MODEL (GWF)
                            VERSION 6.4.2 06/28/2023

         MODFLOW 6 compiled Jul 12 2023 01:08:19 with GCC version 9.4.0

This software has been approved for release by the U.S. Geological 
Survey (USGS). Although the software has been subjected to rigorous 
review, the USGS reserves the right to update the software as needed 
pursuant to further analysis and review. No warranty, expressed or 
implied, is made by the USGS or the U.S. Government as to the 
functionality of the software and related material nor shall the 
fact of release constitute any such warranty. Furthermore, the 
software is released on condition that neither the USGS nor the U.S. 
Government shall be held liable for any damages resulting from its 
authorized or unauthorized use. Also refer to the USGS Water 
Resources Software User Rights Notice for complete use, copyright, 
and distribution information.


As a work of the United States Government, this USGS product is 
in the public domain within the United States. You can copy, 
modify, distribute, and perform the work, even for commercial 
purposes, all without asking permission. Additionally, USGS 
waives copyright and related rights in the work worldwide 
through CC0 1.0 Universal Public Domain Dedication 
(https://creativecommons.org/publicdomain/zero/1.0/).

The following GNU Lesser General Public License (LGPL) libraries
are used in this USGS product:

    SPARSKIT version 2.0
      ilut, luson, and qsplit 
      (https://www-users.cse.umn.edu/~saad/software/SPARSKIT/)

    RCM - Reverse Cuthill McKee Ordering
      (https://people.math.sc.edu/Burkardt/f_src/rcm/rcm.html)

    BLAS - Basic Linear Algebra Subprograms Level 1
      (https://people.math.sc.edu/Burkardt/f_src/blas1_d/blas1_d.html)

    SPARSEKIT - Sparse Matrix Utility Package
      amux, dperm, dvperm, rperm, and cperm
      (https://people.sc.fsu.edu/~jburkardt/f77_src/sparsekit/sparsekit.html)

The following BSD-3 License libraries are used in this USGS product:

    Modern Fortran DAG Library
      Copyright (c) 2018, Jacob Williams
      All rights reserved.
      (https://github.com/jacobwilliams/daglib)

MODFLOW 6 compiler options: -cpp -I ./obj_mf6 -imultiarch x86_64-linux-gnu -D
__linux__ -mtune=generic -march=x86-64 -auxbase-strip
./obj_mf6/compilerversion.o -O2 -Wtabs -Wline-truncation -Wunused-label
-Wunused-variable -Wpedantic -Wcharacter-truncation -std=f2008 -fbacktrace
-ffpe-summary=overflow -ffpe-trap=overflow,zero,invalid -fall-intrinsics -J
./mod_mf6 -fpre-include=/usr/include/finclude/math-vector-fortran.h

System command used to initiate simulation:
/home/ubuntu/mf6

MODFLOW was compiled using uniform precision.

Real Variables
  KIND: 8
  TINY (smallest non-zero value):    2.225074-308
  HUGE (largest value):    1.797693+308
  PRECISION: 15
  SIZE IN BITS: 64

Integer Variables
  KIND: 4
  HUGE (largest value): 2147483647
  SIZE IN BITS: 32

Long Integer Variables
  KIND: 8
  HUGE (largest value): 9223372036854775807
  SIZE IN BITS: 64

Logical Variables
  KIND: 4
  SIZE IN BITS: 32

 NAMEFILE OPTIONS:
    NEWTON-RAPHSON method enabled for the model.
    NEWTON-RAPHSON UNDER-RELAXATION based on the bottom elevation of the model will be applied to the model.
    FLOWS WILL BE SAVED TO BUDGET FILE SPECIFIED IN OUTPUT CONTROL
 END NAMEFILE OPTIONS:

 DIS -- STRUCTURED GRID DISCRETIZATION PACKAGE, VERSION 2 : 3/27/2014 - INPUT READ FROM MEMPATH: __INPUT__/FLOPY_MODELS_3/DIS                      


 NPF -- NODE PROPERTY FLOW PACKAGE, VERSION 1, 3/30/2015 INPUT READ FROM MEMPATH: __INPUT__/FLOPY_MODELS_3/NPF                      

 Setting Discretization Options
 End Setting Discretization Options

 Setting Discretization Dimensions
    NLAY = 10
    NROW = 101
    NCOL = 101
 End Setting Discretization Dimensions

 Setting Discretization Griddata
    DELR set from input file
    DELC set from input file
    TOP set from input file
    BOTM set from input file
 End Setting Discretization Griddata

 Setting NPF Options
 End Setting NPF Options

 Setting NPF Griddata
    ICELLTYPE set from input file
    K set from input file
    K33 not provided.  Setting K33 = K.
    K22 not provided.  Setting K22 = K.
 End Setting NPF Griddata


 WEL   -- WEL PACKAGE, VERSION 8, 2/22/2014 INPUT READ FROM UNIT 1008
 # File generated by Flopy version 3.4.1 on 07/19/2023 at 00:24:38.

 PROCESSING WEL OPTIONS
 END OF WEL OPTIONS

 PROCESSING WEL DIMENSIONS
    MAXBOUND =       2
 END OF WEL DIMENSIONS

 RCH   -- RCH PACKAGE, VERSION 8, 2/22/2014 INPUT READ FROM UNIT 1009
 # File generated by Flopy version 3.4.1 on 07/19/2023 at 00:24:38.

 PROCESSING RCH OPTIONS
    RECHARGE INPUT WILL BE READ AS ARRAY(S).
 END OF RCHA OPTIONS

 CHD   -- CHD PACKAGE, VERSION 8, 2/22/2014 INPUT READ FROM UNIT 1010
 # File generated by Flopy version 3.4.1 on 07/19/2023 at 00:24:38.

 PROCESSING CHD OPTIONS
 END OF CHD OPTIONS

 PROCESSING CHD DIMENSIONS
    MAXBOUND =     299
 END OF CHD DIMENSIONS

 IC -- INITIAL CONDITIONS PACKAGE, VERSION 8, 3/28/2015 INPUT READ FROM UNIT 1006
 # File generated by Flopy version 3.4.1 on 07/19/2023 at 00:24:37.
 PROCESSING GRIDDATA
 END PROCESSING GRIDDATA

 STO -- STORAGE PACKAGE, VERSION 1, 5/19/2014 INPUT READ FROM UNIT 1005


 # File generated by Flopy version 3.4.1 on 07/19/2023 at 00:24:38.
 PROCESSING STORAGE OPTIONS
 END OF STORAGE OPTIONS
 PROCESSING GRIDDATA

                 ICONVERT = 1

         SPECIFIC STORAGE =  0.1000000E-04

           SPECIFIC YIELD =  0.1500000    
 END PROCESSING GRIDDATA
    BINARY GRID INFORMATION WILL BE WRITTEN TO:
      UNIT NUMBER: 1014
      FILE NAME: FloPy_ModelS_3.dis.grb

 OPENED FloPy_ModelS_3.dis.grb
 FILE TYPE:DATA(BINARY)   UNIT 1014   STATUS:REPLACE             
 FORMAT:UNFORMATTED            ACCESS:STREAM              
 ACTION:READWRITE           

      THE LAST TIME STEP WILL BE PRINTED
      THE LAST TIME STEP WILL BE PRINTED
 # File generated by Flopy version 3.4.1 on 07/19/2023 at 00:24:38.

 PROCESSING OC OPTIONS

    BUDGET INFORMATION WILL BE WRITTEN TO:
      UNIT NUMBER: 1015
      FILE NAME: FloPy_ModelS_3.cbb

 OPENED FloPy_ModelS_3.cbb
 FILE TYPE:DATA(BINARY)   UNIT 1015   STATUS:REPLACE             
 FORMAT:UNFORMATTED            ACCESS:STREAM              
 ACTION:READWRITE           

    HEAD INFORMATION WILL BE WRITTEN TO:
      UNIT NUMBER: 1016
      FILE NAME: FloPy_ModelS_3.hds

 OPENED FloPy_ModelS_3.hds
 FILE TYPE:DATA(BINARY)   UNIT 1016   STATUS:REPLACE             
 FORMAT:UNFORMATTED            ACCESS:STREAM              
 ACTION:READWRITE           

 END OF OC OPTIONS

start timestep kper="1" kstp="1" mode="normal"


 BEGIN READING OUTPUT CONTROL FOR STRESS PERIOD 1
      ALL TIME STEPS WILL BE SAVED
      ALL TIME STEPS WILL BE SAVED
      THE LAST TIME STEP WILL BE PRINTED

 END READING OUTPUT CONTROL FOR STRESS PERIOD 1


 STRESS PERIOD 1 IS TRANSIENT


                 RECHARGE =  0.9601150E-02
 UBDSV1 SAVING           STO-SS ON UNIT   1015 AT TIME STEP      1, STRESS PERIOD      1
 UBDSV1 SAVING           STO-SY ON UNIT   1015 AT TIME STEP      1, STRESS PERIOD      1
 UBDSV1 SAVING     FLOW-JA-FACE ON UNIT   1015 AT TIME STEP      1, STRESS PERIOD      1
 UBDSV06 SAVING              WEL IN MODEL FLOPY_MODELS_3   PACKAGE FLOPY_MODELS_3  CONNECTED TO MODEL FLOPY_MODELS_3   PACKAGE WEL_0            ON UNIT   1015 AT TIME STEP      1, STRESS PERIOD      1
 UBDSV06 SAVING             RCHA IN MODEL FLOPY_MODELS_3   PACKAGE FLOPY_MODELS_3  CONNECTED TO MODEL FLOPY_MODELS_3   PACKAGE RCH              ON UNIT   1015 AT TIME STEP      1, STRESS PERIOD      1
 UBDSV06 SAVING              CHD IN MODEL FLOPY_MODELS_3   PACKAGE FLOPY_MODELS_3  CONNECTED TO MODEL FLOPY_MODELS_3   PACKAGE CHD_0            ON UNIT   1015 AT TIME STEP      1, STRESS PERIOD      1
1
  HEAD IN LAYER   1 AT END OF TIME STEP   1 IN STRESS PERIOD    1
  ---------------------------------------------------------------------------

            1           2           3           4           5           6           7           8           9          10
           11          12          13          14          15          16          17          18          19          20
           21          22          23          24          25          26          27          28          29          30
           31          32          33          34          35          36          37          38          39          40
           41          42          43          44          45          46          47          48          49          50
           51          52          53          54          55          56          57          58          59          60
           61          62          63          64          65          66          67          68          69          70
           71          72          73          74          75          76          77          78          79          80
           81          82          83          84          85          86          87          88          89          90
           91          92          93          94          95          96          97          98          99         100
          101
 ........................................................................................................................
   1    99.59       100.0       100.0       100.0       100.0       100.0       100.0       100.0       100.0       100.0    
        100.0       100.0       100.0       100.0       100.0       100.0       100.0       100.0       100.0       100.0    
        100.0       100.0       100.0       100.0       100.0       100.0       100.0       100.0       100.0       100.0    
        100.0       100.0       100.0       100.0       100.0       100.0       100.0       100.0       100.0       100.0    
        100.0       100.0       100.0       100.0       100.0       100.0       100.0       100.0       100.0       100.0    
        100.0       100.0       100.0       100.0       100.0       100.0       100.0       100.0       100.0       100.0    
        100.0       100.0       100.0       100.0       100.0       100.0       100.0       100.0       100.0       100.0    
        100.0       100.0       100.0       100.0       100.0       100.0       100.0       100.0       100.0       100.0    
        100.0       100.0       100.0       100.0       100.0       100.0       100.0       100.0       100.0       100.0    
        100.0       100.0       100.0       100.0       100.0       100.0       100.0       100.0       100.0       100.0    
        100.0    
   2    99.36       99.47       99.50       99.51       99.51       99.51       99.51       99.50       99.50       99.49    
        99.48       99.48       99.47       99.46       99.45       99.44       99.43       99.43       99.42       99.41    
        99.41       99.40       99.40       99.40       99.39       99.39       99.39       99.40       99.40       99.40    
        99.41       99.42       99.42       99.43       99.44       99.45       99.46       99.47       99.48       99.49    
        99.49       99.50       99.51       99.52       99.53       99.53       99.54       99.54       99.55       99.55    
        99.55       99.55       99.55       99.55       99.55       99.55       99.54       99.54       99.54       99.53    
        99.53       99.52       99.52       99.51       99.50       99.50       99.49       99.49       99.48       99.48    
        99.48       99.48       99.48       99.48       99.48       99.49       99.49       99.50       99.51       99.52    
        99.53       99.54       99.55       99.57       99.58       99.60       99.61       99.63       99.64       99.66    
        99.68       99.70       99.71       99.73       99.75       99.77       99.79       99.82       99.85       99.90    
        100.0    
   3    99.14       99.17       99.19       99.20       99.20       99.19       99.19       99.18       99.17       99.16    
        99.15       99.13       99.12       99.10       99.09       99.08       99.06       99.05       99.04       99.03    
        99.02       99.01       99.00       99.00       98.99       98.99       98.99       99.00       99.00       99.01    
        99.02       99.03       99.04       99.06       99.07       99.09       99.10       99.12       99.13       99.15    
        99.16       99.18       99.19       99.20       99.21       99.23       99.23       99.24       99.25       99.25    
        99.26       99.26       99.26       99.26       99.25       99.25       99.25       99.24       99.23       99.22    
        99.22       99.21       99.20       99.19       99.18       99.17       99.16       99.15       99.14       99.14    
        99.13       99.13       99.13       99.13       99.14       99.15       99.15       99.17       99.18       99.20    
        99.21       99.23       99.25       99.28       99.30       99.33       99.35       99.38       99.41       99.44    
        99.47       99.50       99.53       99.56       99.59       99.62       99.66       99.71       99.77       99.85    
        100.0    
   4    98.95       98.96       98.97       98.97       98.97       98.96       98.95       98.94       98.93       98.91    
        98.90       98.88       98.86       98.84       98.82       98.80       98.78       98.77       98.75       98.74    
        98.72       98.71       98.70       98.70       98.69       98.69       98.70       98.70       98.71       98.72    
        98.73       98.74       98.76       98.78       98.80       98.82       98.84       98.86       98.88       98.90    
        98.92       98.94       98.95       98.97       98.99       99.00       99.01       99.02       99.03       99.04    
        99.04       99.04       99.04       99.04       99.04       99.03       99.03       99.02       99.01       99.00    
        98.99       98.97       98.96       98.95       98.93       98.92       98.91       98.90       98.89       98.88    
        98.88       98.87       98.87       98.88       98.88       98.89       98.90       98.91       98.93       98.95    
        98.98       99.00       99.03       99.06       99.09       99.13       99.16       99.20       99.24       99.27    
        99.31       99.35       99.39       99.43       99.47       99.52       99.57       99.63       99.71       99.82    
        100.0    
   5    98.79       98.79       98.79       98.79       98.79       98.78       98.76       98.75       98.73       98.72    
        98.70       98.67       98.65       98.63       98.61       98.58       98.56       98.54       98.52       98.50    
        98.48       98.47       98.46       98.45       98.45       98.45       98.45       98.46       98.46       98.48    
        98.49       98.51       98.53       98.55       98.57       98.60       98.62       98.65       98.67       98.70    
        98.72       98.74       98.77       98.79       98.80       98.82       98.83       98.85       98.86       98.86    
        98.87       98.87       98.87       98.87       98.86       98.86       98.85       98.84       98.83       98.81    
        98.80       98.78       98.77       98.75       98.74       98.72       98.71       98.69       98.68       98.67    
        98.66       98.66       98.66       98.66       98.67       98.68       98.69       98.71       98.73       98.75    
        98.78       98.81       98.85       98.88       98.92       98.96       99.01       99.05       99.09       99.14    
        99.18       99.23       99.28       99.33       99.38       99.44       99.50       99.57       99.66       99.79    
        100.0    
   6    98.65       98.65       98.65       98.64       98.63       98.62       98.61       98.59       98.57       98.55    
        98.52       98.50       98.47       98.45       98.42       98.39       98.37       98.34       98.32       98.29    
        98.28       98.26       98.25       98.24       98.23       98.23       98.23       98.24       98.25       98.27    
        98.28       98.31       98.33       98.35       98.38       98.41       98.44       98.47       98.50       98.53    
        98.55       98.58       98.61       98.63       98.65       98.67       98.68       98.70       98.71       98.72    
        98.72       98.73       98.73       98.72       98.72       98.71       98.70       98.69       98.67       98.66    
        98.64       98.62       98.60       98.58       98.57       98.55       98.53       98.51       98.50       98.49    
        98.48       98.47       98.47       98.47       98.48       98.49       98.50       98.52       98.55       98.58    
        98.61       98.65       98.68       98.73       98.77       98.82       98.87       98.92       98.97       99.02    
        99.07       99.13       99.18       99.24       99.30       99.37       99.44       99.52       99.63       99.77    
        100.0    
   7    98.52       98.52       98.52       98.51       98.50       98.49       98.47       98.45       98.43       98.40    
        98.37       98.34       98.31       98.28       98.25       98.22       98.19       98.16       98.13       98.11    
        98.08       98.07       98.05       98.04       98.03       98.03       98.04       98.04       98.06       98.07    
        98.09       98.12       98.15       98.18       98.21       98.24       98.27       98.31       98.34       98.37    
        98.40       98.43       98.46       98.49       98.51       98.53       98.55       98.57       98.58       98.59    
        98.60       98.60       98.60       98.60       98.59       98.58       98.57       98.56       98.54       98.52    
        98.50       98.48       98.46       98.43       98.41       98.39       98.37       98.35       98.33       98.32    
        98.30       98.30       98.29       98.29       98.30       98.31       98.33       98.35       98.38       98.41    
        98.45       98.49       98.53       98.58       98.63       98.69       98.74       98.80       98.86       98.92    
        98.98       99.04       99.10       99.16       99.23       99.30       99.38       99.48       99.59       99.75    
        100.0    
   8    98.41       98.41       98.40       98.39       98.38       98.36       98.34       98.32       98.29       98.27    
        98.23       98.20       98.17       98.13       98.10       98.06       98.02       97.99       97.96       97.93    
        97.90       97.88       97.87       97.85       97.85       97.84       97.85       97.86       97.87       97.89    
        97.91       97.94       97.97       98.01       98.04       98.08       98.12       98.16       98.19       98.23    
        98.27       98.30       98.33       98.36       98.39       98.41       98.43       98.45       98.46       98.47    
        98.48       98.48       98.48       98.48       98.47       98.46       98.45       98.43       98.41       98.39    
        98.37       98.35       98.32       98.29       98.27       98.24       98.22       98.19       98.17       98.15    
        98.14       98.13       98.12       98.13       98.13       98.14       98.16       98.19       98.22       98.25    
        98.30       98.34       98.39       98.45       98.50       98.56       98.62       98.69       98.75       98.82    
        98.88       98.95       99.02       99.09       99.17       99.25       99.33       99.44       99.56       99.74    
        100.0    
   9    98.31       98.30       98.30       98.28       98.27       98.25       98.23       98.20       98.17       98.14    
        98.11       98.07       98.03       97.99       97.95       97.91       97.87       97.83       97.79       97.76    
        97.73       97.70       97.68       97.67       97.66       97.66       97.66       97.67       97.69       97.71    
        97.74       97.77       97.81       97.85       97.89       97.93       97.97       98.01       98.06       98.10    
        98.14       98.18       98.21       98.25       98.27       98.30       98.32       98.34       98.36       98.37    
        98.38       98.38       98.38       98.37       98.37       98.35       98.34       98.32       98.30       98.27    
        98.25       98.22       98.19       98.16       98.13       98.10       98.07       98.04       98.02       98.00    
        97.98       97.97       97.96       97.96       97.97       97.98       98.00       98.02       98.06       98.10    
        98.14       98.20       98.25       98.31       98.37       98.44       98.51       98.58       98.65       98.72    
        98.80       98.87       98.95       99.02       99.10       99.19       99.29       99.40       99.53       99.72    
        100.0    
  10    98.21       98.20       98.20       98.18       98.17       98.14       98.12       98.09       98.06       98.02    
        97.98       97.94       97.90       97.85       97.81       97.76       97.71       97.67       97.63       97.59    
        97.56       97.53       97.51       97.49       97.48       97.48       97.48       97.49       97.51       97.54    
        97.57       97.60       97.64       97.69       97.73       97.78       97.83       97.88       97.93       97.97    
        98.02       98.06       98.10       98.13       98.17       98.20       98.22       98.24       98.26       98.27    
        98.28       98.28       98.28       98.27       98.27       98.25       98.23       98.21       98.19       98.16    
        98.13       98.10       98.07       98.03       98.00       97.96       97.93       97.89       97.86       97.84    
        97.82       97.80       97.79       97.79       97.80       97.81       97.83       97.86       97.90       97.94    
        97.99       98.05       98.11       98.18       98.25       98.32       98.40       98.47       98.55       98.63    
        98.71       98.79       98.87       98.96       99.05       99.14       99.24       99.36       99.51       99.70    
        100.0    
  11    98.12       98.11       98.10       98.09       98.07       98.05       98.02       97.99       97.95       97.91    
        97.86       97.82       97.77       97.72       97.67       97.62       97.56       97.51       97.47       97.42    
        97.39       97.35       97.33       97.31       97.30       97.29       97.30       97.31       97.33       97.36    
        97.40       97.44       97.48       97.53       97.58       97.64       97.69       97.75       97.80       97.85    
        97.90       97.95       97.99       98.03       98.07       98.10       98.12       98.15       98.16       98.18    
        98.19       98.19       98.19       98.18       98.17       98.16       98.14       98.11       98.09       98.05    
        98.02       97.98       97.95       97.91       97.86       97.82       97.78       97.75       97.71       97.68    
        97.66       97.64       97.63       97.62       97.63       97.64       97.66       97.70       97.74       97.79    
        97.84       97.90       97.97       98.05       98.12       98.20       98.29       98.37       98.45       98.54    
        98.63       98.72       98.80       98.90       98.99       99.09       99.20       99.33       99.48       99.69    
        100.0    
  12    98.03       98.03       98.01       98.00       97.98       97.95       97.92       97.88       97.84       97.80    
        97.75       97.70       97.65       97.59       97.53       97.47       97.42       97.36       97.31       97.26    
        97.21       97.17       97.14       97.12       97.11       97.11       97.11       97.13       97.15       97.18    
        97.22       97.27       97.32       97.38       97.44       97.50       97.56       97.62       97.68       97.73    
        97.79       97.84       97.89       97.93       97.97       98.00       98.03       98.06       98.08       98.09    
        98.10       98.10       98.10       98.09       98.08       98.06       98.04       98.02       97.99       97.95    
        97.91       97.87       97.83       97.78       97.74       97.69       97.64       97.60       97.56       97.53    
        97.50       97.47       97.46       97.45       97.46       97.47       97.49       97.53       97.57       97.62    
        97.69       97.76       97.83       97.91       98.00       98.08       98.17       98.27       98.36       98.45    
        98.55       98.64       98.74       98.83       98.93       99.04       99.16       99.29       99.45       99.67    
        100.0    
  13    97.95       97.94       97.93       97.91       97.89       97.86       97.83       97.79       97.75       97.70    
        97.64       97.59       97.53       97.46       97.40       97.33       97.27       97.21       97.15       97.09    
        97.04       97.00       96.96       96.94       96.92       96.92       96.92       96.94       96.97       97.01    
        97.05       97.10       97.16       97.22       97.29       97.36       97.43       97.49       97.56       97.62    
        97.68       97.74       97.79       97.84       97.88       97.91       97.95       97.97       97.99       98.01    
        98.02       98.02       98.02       98.01       98.00       97.98       97.95       97.92       97.89       97.85    
        97.81       97.76       97.71       97.66       97.61       97.56       97.51       97.46       97.41       97.37    
        97.33       97.30       97.29       97.28       97.28       97.29       97.32       97.35       97.40       97.46    
        97.53       97.61       97.69       97.78       97.87       97.97       98.06       98.16       98.27       98.37    
        98.47       98.57       98.67       98.77       98.88       98.99       99.12       99.26       99.43       99.66    
        100.0    
  14    97.87       97.87       97.85       97.83       97.81       97.78       97.74       97.70       97.65       97.60    
        97.54       97.48       97.41       97.34       97.27       97.20       97.12       97.05       96.98       96.92    
        96.86       96.81       96.78       96.75       96.73       96.72       96.73       96.75       96.78       96.82    
        96.88       96.94       97.00       97.07       97.15       97.22       97.30       97.37       97.44       97.51    
        97.58       97.64       97.69       97.75       97.79       97.83       97.87       97.89       97.92       97.93    
        97.94       97.94       97.94       97.93       97.92       97.90       97.87       97.84       97.80       97.76    
        97.71       97.66       97.60       97.54       97.49       97.43       97.37       97.31       97.26       97.21    
        97.17       97.13       97.11       97.10       97.10       97.11       97.14       97.18       97.23       97.29    
        97.37       97.45       97.54       97.64       97.74       97.85       97.96       98.06       98.17       98.28    
        98.39       98.50       98.61       98.72       98.83       98.95       99.08       99.23       99.40       99.64    
        100.0    
  15    97.80       97.79       97.78       97.76       97.73       97.70       97.66       97.61       97.56       97.50    
        97.44       97.37       97.30       97.22       97.14       97.06       96.98       96.90       96.82       96.75    
        96.69       96.63       96.59       96.55       96.53       96.53       96.54       96.56       96.59       96.64    
        96.70       96.77       96.84       96.92       97.00       97.09       97.17       97.25       97.33       97.41    
        97.48       97.54       97.60       97.66       97.71       97.75       97.79       97.82       97.84       97.86    
        97.87       97.87       97.87       97.86       97.84       97.82       97.79       97.75       97.71       97.66    
        97.61       97.56       97.49       97.43       97.36       97.30       97.23       97.16       97.10       97.05    
        97.00       96.96       96.93       96.91       96.91       96.92       96.95       97.00       97.05       97.12    
        97.21       97.30       97.40       97.51       97.62       97.73       97.85       97.96       98.08       98.20    
        98.31       98.43       98.55       98.66       98.78       98.91       99.04       99.19       99.38       99.63    
        100.0    
  16    97.73       97.73       97.71       97.69       97.66       97.63       97.58       97.53       97.48       97.41    
        97.34       97.27       97.19       97.11       97.02       96.93       96.84       96.75       96.67       96.59    
        96.51       96.45       96.40       96.36       96.34       96.33       96.34       96.36       96.40       96.46    
        96.52       96.60       96.68       96.77       96.86       96.95       97.05       97.14       97.22       97.30    
        97.38       97.45       97.52       97.58       97.63       97.68       97.72       97.75       97.77       97.79    
        97.80       97.81       97.80       97.79       97.77       97.75       97.71       97.68       97.63       97.58    
        97.52       97.46       97.39       97.32       97.25       97.17       97.09       97.02       96.95       96.89    
        96.83       96.78       96.75       96.73       96.72       96.74       96.77       96.81       96.88       96.95    
        97.04       97.14       97.25       97.37       97.49       97.62       97.74       97.87       97.99       98.12    
        98.24       98.36       98.49       98.61       98.73       98.87       99.01       99.17       99.36       99.61    
        100.0    
  17    97.67       97.67       97.65       97.63       97.60       97.56       97.51       97.46       97.40       97.33    
        97.25       97.17       97.09       97.00       96.90       96.80       96.70       96.61       96.51       96.42    
        96.34       96.27       96.21       96.16       96.14       96.13       96.14       96.17       96.22       96.28    
        96.35       96.44       96.53       96.63       96.73       96.83       96.93       97.03       97.12       97.21    
        97.29       97.37       97.44       97.51       97.56       97.61       97.65       97.69       97.71       97.73    
        97.74       97.74       97.74       97.73       97.71       97.68       97.64       97.60       97.55       97.50    
        97.43       97.37       97.29       97.21       97.13       97.05       96.96       96.88       96.80       96.73    
        96.66       96.61       96.57       96.54       96.53       96.55       96.58       96.63       96.70       96.78    
        96.88       96.99       97.11       97.24       97.37       97.50       97.64       97.77       97.91       98.04    
        98.17       98.30       98.43       98.56       98.69       98.83       98.97       99.14       99.34       99.60    
        100.0    
  18    97.62       97.61       97.59       97.57       97.54       97.50       97.45       97.39       97.32       97.25    
        97.17       97.08       96.99       96.89       96.79       96.68       96.57       96.46       96.36       96.26    
        96.17       96.09       96.02       95.97       95.94       95.93       95.94       95.98       96.03       96.10    
        96.18       96.27       96.38       96.48       96.60       96.71       96.82       96.92       97.02       97.12    
        97.21       97.29       97.37       97.44       97.50       97.55       97.59       97.63       97.66       97.67    
        97.69       97.69       97.68       97.67       97.65       97.62       97.58       97.54       97.48       97.42    
        97.35       97.28       97.20       97.11       97.02       96.93       96.84       96.74       96.65       96.57    
        96.50       96.43       96.38       96.35       96.34       96.36       96.39       96.44       96.52       96.61    
        96.72       96.84       96.97       97.11       97.25       97.40       97.54       97.69       97.83       97.97    
        98.11       98.24       98.38       98.51       98.65       98.79       98.94       99.11       99.32       99.59    
        100.0    
  19    97.57       97.56       97.54       97.52       97.48       97.44       97.39       97.33       97.26       97.18    
        97.10       97.00       96.90       96.80       96.68       96.57       96.45       96.33       96.22       96.10    
        96.00       95.91       95.84       95.78       95.75       95.74       95.75       95.79       95.85       95.92    
        96.02       96.12       96.23       96.35       96.47       96.59       96.71       96.83       96.94       97.04    
        97.13       97.22       97.30       97.37       97.44       97.49       97.54       97.58       97.61       97.63    
        97.64       97.64       97.63       97.62       97.60       97.56       97.52       97.48       97.42       97.35    
        97.28       97.20       97.11       97.02       96.92       96.82       96.72       96.62       96.52       96.42    
        96.34       96.26       96.21       96.17       96.16       96.17       96.20       96.26       96.34       96.45    
        96.56       96.70       96.84       96.99       97.14       97.29       97.45       97.60       97.75       97.90    
        98.05       98.19       98.33       98.47       98.61       98.76       98.92       99.09       99.30       99.58    
        100.0    
  20    97.53       97.52       97.50       97.47       97.44       97.39       97.34       97.27       97.20       97.12    
        97.03       96.93       96.82       96.71       96.59       96.46       96.34       96.21       96.08       95.96    
        95.85       95.75       95.67       95.61       95.57       95.56       95.57       95.61       95.67       95.76    
        95.86       95.98       96.10       96.23       96.36       96.49       96.62       96.74       96.86       96.97    
        97.07       97.16       97.24       97.32       97.39       97.44       97.49       97.53       97.56       97.58    
        97.59       97.60       97.59       97.57       97.55       97.52       97.47       97.42       97.36       97.29    
        97.22       97.13       97.04       96.94       96.83       96.72       96.61       96.50       96.39       96.28    
        96.19       96.11       96.04       96.00       95.98       95.99       96.03       96.09       96.18       96.29    
        96.42       96.56       96.71       96.87       97.04       97.20       97.37       97.53       97.69       97.84    
        97.99       98.14       98.29       98.43       98.58       98.73       98.89       99.07       99.29       99.57    
        100.0    
  21    97.49       97.48       97.46       97.44       97.40       97.35       97.29       97.23       97.15       97.06    
        96.97       96.87       96.75       96.63       96.50       96.37       96.23       96.10       95.96       95.83    
        95.71       95.60       95.51       95.44       95.40       95.39       95.40       95.45       95.52       95.61    
        95.72       95.84       95.98       96.12       96.26       96.40       96.53       96.66       96.79       96.90    
        97.01       97.11       97.20       97.27       97.34       97.40       97.45       97.49       97.52       97.55    
        97.56       97.56       97.55       97.54       97.51       97.48       97.43       97.38       97.31       97.24    
        97.16       97.07       96.97       96.86       96.75       96.63       96.51       96.39       96.27       96.15    
        96.05       95.96       95.89       95.84       95.82       95.83       95.86       95.93       96.03       96.14    
        96.28       96.44       96.60       96.77       96.94       97.12       97.29       97.46       97.63       97.79    
        97.95       98.10       98.25       98.40       98.55       98.71       98.87       99.05       99.27       99.56    
        100.0    
  22    97.46       97.45       97.43       97.41       97.37       97.32       97.26       97.19       97.11       97.02    
        96.92       96.81       96.70       96.57       96.43       96.29       96.15       96.00       95.86       95.72    
        95.58       95.47       95.37       95.30       95.25       95.24       95.25       95.30       95.38       95.48    
        95.60       95.73       95.87       96.02       96.17       96.32       96.46       96.60       96.73       96.85    
        96.96       97.06       97.15       97.24       97.31       97.37       97.42       97.46       97.49       97.52    
        97.53       97.53       97.52       97.51       97.48       97.44       97.40       97.34       97.27       97.20    
        97.11       97.02       96.91       96.80       96.68       96.56       96.43       96.30       96.17       96.04    
        95.93       95.83       95.75       95.70       95.67       95.68       95.72       95.79       95.89       96.02    
        96.16       96.33       96.50       96.68       96.86       97.05       97.23       97.40       97.58       97.75    
        97.91       98.07       98.22       98.37       98.53       98.69       98.85       99.04       99.26       99.56    
        100.0    
  23    97.44       97.43       97.41       97.38       97.34       97.29       97.23       97.16       97.08       96.99    
        96.88       96.77       96.65       96.52       96.38       96.23       96.08       95.93       95.77       95.62    
        95.48       95.36       95.25       95.18       95.13       95.11       95.13       95.18       95.26       95.37    
        95.50       95.64       95.79       95.95       96.10       96.26       96.41       96.55       96.68       96.81    
        96.92       97.03       97.12       97.21       97.28       97.34       97.40       97.44       97.47       97.50    
        97.51       97.51       97.50       97.48       97.46       97.42       97.37       97.31       97.24       97.17    
        97.08       96.98       96.87       96.75       96.63       96.50       96.36       96.22       96.08       95.95    
        95.83       95.73       95.64       95.58       95.55       95.56       95.60       95.67       95.78       95.91    
        96.07       96.24       96.42       96.61       96.80       96.99       97.18       97.36       97.54       97.71    
        97.88       98.04       98.20       98.35       98.51       98.67       98.84       99.03       99.26       99.55    
        100.0    
  24    97.43       97.42       97.40       97.37       97.33       97.28       97.21       97.14       97.06       96.96    
        96.86       96.74       96.62       96.48       96.34       96.19       96.03       95.87       95.71       95.56    
        95.41       95.28       95.17       95.09       95.03       95.02       95.04       95.09       95.18       95.29    
        95.42       95.57       95.73       95.89       96.05       96.21       96.37       96.51       96.65       96.78    
        96.90       97.01       97.10       97.19       97.26       97.33       97.38       97.43       97.46       97.48    
        97.49       97.50       97.49       97.47       97.44       97.40       97.35       97.29       97.22       97.14    
        97.05       96.95       96.84       96.72       96.59       96.45       96.31       96.17       96.03       95.89    
        95.76       95.65       95.56       95.49       95.46       95.47       95.51       95.59       95.70       95.84    
        96.00       96.18       96.36       96.56       96.75       96.95       97.14       97.33       97.51       97.69    
        97.86       98.02       98.18       98.34       98.50       98.66       98.83       99.02       99.25       99.55    
        100.0    
  25    97.42       97.41       97.39       97.36       97.32       97.27       97.21       97.13       97.05       96.95    
        96.85       96.73       96.60       96.46       96.32       96.16       96.00       95.84       95.68       95.52    
        95.37       95.23       95.12       95.03       94.98       94.96       94.98       95.04       95.13       95.24    
        95.38       95.53       95.69       95.86       96.03       96.19       96.35       96.50       96.64       96.77    
        96.89       96.99       97.09       97.18       97.26       97.32       97.38       97.42       97.45       97.48    
        97.49       97.49       97.48       97.46       97.44       97.40       97.35       97.29       97.21       97.13    
        97.04       96.94       96.82       96.70       96.57       96.43       96.29       96.14       95.99       95.85    
        95.72       95.60       95.51       95.44       95.41       95.41       95.46       95.54       95.65       95.79    
        95.96       96.14       96.33       96.53       96.73       96.93       97.12       97.31       97.50       97.67    
        97.85       98.01       98.18       98.33       98.49       98.66       98.83       99.02       99.25       99.55    
        100.0    
  26    97.42       97.41       97.39       97.36       97.32       97.27       97.21       97.13       97.05       96.95    
        96.85       96.73       96.60       96.46       96.31       96.16       96.00       95.83       95.67       95.51    
        95.36       95.22       95.11       95.02       94.96       94.95       94.97       95.02       95.11       95.23    
        95.37       95.52       95.69       95.85       96.02       96.19       96.34       96.49       96.63       96.77    
        96.89       96.99       97.09       97.18       97.26       97.32       97.38       97.42       97.45       97.48    
        97.49       97.49       97.48       97.47       97.44       97.40       97.35       97.29       97.22       97.13    
        97.04       96.94       96.82       96.70       96.57       96.43       96.28       96.13       95.98       95.84    
        95.71       95.59       95.50       95.43       95.40       95.40       95.44       95.52       95.64       95.78    
        95.95       96.13       96.32       96.52       96.72       96.92       97.12       97.31       97.50       97.67    
        97.85       98.01       98.18       98.34       98.50       98.66       98.83       99.02       99.25       99.55    
        100.0    
  27    97.43       97.42       97.40       97.37       97.33       97.28       97.22       97.14       97.06       96.96    
        96.86       96.74       96.61       96.48       96.33       96.17       96.01       95.85       95.69       95.53    
        95.38       95.24       95.13       95.04       94.99       94.97       94.99       95.05       95.14       95.25    
        95.39       95.54       95.71       95.87       96.04       96.20       96.36       96.51       96.65       96.78    
        96.90       97.01       97.10       97.19       97.27       97.33       97.39       97.43       97.46       97.49    
        97.50       97.50       97.49       97.48       97.45       97.41       97.36       97.30       97.23       97.15    
        97.05       96.95       96.84       96.71       96.58       96.44       96.30       96.15       96.00       95.86    
        95.73       95.61       95.52       95.46       95.42       95.43       95.47       95.55       95.66       95.80    
        95.97       96.15       96.34       96.54       96.74       96.94       97.13       97.32       97.51       97.69    
        97.86       98.02       98.18       98.34       98.50       98.66       98.84       99.03       99.25       99.55    
        100.0    
  28    97.45       97.44       97.42       97.39       97.35       97.30       97.24       97.16       97.08       96.99    
        96.88       96.77       96.64       96.51       96.36       96.21       96.05       95.89       95.73       95.58    
        95.43       95.30       95.19       95.11       95.06       95.04       95.06       95.12       95.20       95.31    
        95.45       95.60       95.75       95.92       96.08       96.24       96.39       96.54       96.68       96.80    
        96.92       97.03       97.13       97.21       97.29       97.35       97.41       97.45       97.48       97.51    
        97.52       97.52       97.51       97.50       97.47       97.43       97.38       97.32       97.25       97.17    
        97.08       96.98       96.87       96.74       96.62       96.48       96.34       96.19       96.05       95.91    
        95.79       95.67       95.58       95.52       95.49       95.49       95.54       95.61       95.72       95.86    
        96.02       96.20       96.39       96.58       96.78       96.97       97.16       97.35       97.53       97.71    
        97.88       98.04       98.20       98.36       98.52       98.68       98.85       99.04       99.26       99.56    
        100.0    
  29    97.48       97.47       97.45       97.42       97.38       97.33       97.27       97.20       97.11       97.02    
        96.92       96.81       96.68       96.55       96.41       96.27       96.12       95.96       95.81       95.66    
        95.52       95.39       95.29       95.21       95.16       95.15       95.16       95.22       95.30       95.41    
        95.53       95.67       95.83       95.98       96.14       96.29       96.44       96.59       96.72       96.84    
        96.96       97.07       97.16       97.24       97.32       97.38       97.43       97.48       97.51       97.53    
        97.54       97.55       97.54       97.52       97.49       97.46       97.41       97.35       97.28       97.20    
        97.11       97.02       96.91       96.79       96.67       96.53       96.40       96.26       96.12       95.99    
        95.87       95.76       95.68       95.62       95.59       95.60       95.64       95.71       95.82       95.95    
        96.11       96.28       96.46       96.64       96.83       97.02       97.21       97.39       97.57       97.74    
        97.91       98.07       98.23       98.38       98.54       98.69       98.86       99.05       99.27       99.56    
        100.0    
  30    97.51       97.50       97.48       97.45       97.41       97.36       97.30       97.24       97.16       97.07    
        96.97       96.86       96.74       96.62       96.48       96.34       96.20       96.05       95.90       95.76    
        95.63       95.51       95.42       95.34       95.30       95.28       95.30       95.35       95.42       95.52    
        95.64       95.78       95.92       96.07       96.22       96.37       96.51       96.65       96.78       96.90    
        97.01       97.11       97.20       97.28       97.36       97.42       97.47       97.51       97.54       97.57    
        97.58       97.58       97.57       97.56       97.53       97.49       97.45       97.39       97.32       97.25    
        97.16       97.07       96.96       96.85       96.73       96.61       96.48       96.35       96.22       96.09    
        95.98       95.88       95.80       95.75       95.72       95.73       95.77       95.84       95.94       96.07    
        96.21       96.38       96.55       96.73       96.91       97.09       97.27       97.45       97.62       97.79    
        97.95       98.11       98.26       98.41       98.56       98.72       98.88       99.06       99.28       99.57    
        100.0    
  31    97.55       97.54       97.52       97.49       97.46       97.41       97.35       97.28       97.21       97.12    
        97.03       96.92       96.81       96.69       96.56       96.43       96.29       96.16       96.02       95.89    
        95.77       95.66       95.57       95.50       95.46       95.44       95.46       95.50       95.58       95.67    
        95.78       95.90       96.04       96.18       96.32       96.46       96.59       96.72       96.85       96.96    
        97.07       97.17       97.25       97.33       97.40       97.46       97.51       97.55       97.58       97.61    
        97.62       97.62       97.61       97.60       97.57       97.54       97.49       97.44       97.38       97.30    
        97.22       97.13       97.03       96.93       96.81       96.70       96.57       96.45       96.33       96.22    
        96.11       96.02       95.95       95.90       95.88       95.89       95.93       95.99       96.09       96.21    
        96.34       96.50       96.66       96.83       97.00       97.17       97.35       97.52       97.68       97.84    
        98.00       98.15       98.30       98.45       98.59       98.75       98.91       99.08       99.30       99.58    
        100.0    
  32    97.60       97.59       97.57       97.54       97.51       97.46       97.41       97.34       97.27       97.19    
        97.10       97.00       96.89       96.78       96.66       96.53       96.41       96.28       96.15       96.03    
        95.92       95.82       95.74       95.68       95.64       95.63       95.64       95.68       95.74       95.83    
        95.93       96.05       96.17       96.30       96.43       96.56       96.69       96.81       96.93       97.04    
        97.14       97.23       97.32       97.39       97.46       97.52       97.56       97.60       97.63       97.65    
        97.67       97.67       97.66       97.65       97.62       97.59       97.55       97.50       97.44       97.37    
        97.29       97.20       97.11       97.01       96.91       96.80       96.68       96.57       96.46       96.36    
        96.26       96.18       96.12       96.08       96.06       96.07       96.10       96.17       96.25       96.36    
        96.49       96.63       96.78       96.94       97.11       97.27       97.43       97.59       97.75       97.91    
        98.06       98.20       98.35       98.49       98.63       98.78       98.93       99.11       99.32       99.59    
        100.0    
  33    97.65       97.64       97.62       97.60       97.56       97.52       97.47       97.41       97.34       97.26    
        97.18       97.08       96.98       96.88       96.76       96.65       96.53       96.41       96.30       96.19    
        96.08       95.99       95.92       95.86       95.83       95.82       95.83       95.87       95.93       96.00    
        96.10       96.20       96.31       96.43       96.55       96.67       96.79       96.91       97.02       97.12    
        97.22       97.30       97.38       97.46       97.52       97.58       97.62       97.66       97.69       97.71    
        97.72       97.72       97.72       97.70       97.68       97.65       97.61       97.56       97.50       97.44    
        97.37       97.29       97.20       97.11       97.01       96.91       96.81       96.70       96.60       96.51    
        96.42       96.35       96.30       96.26       96.25       96.26       96.29       96.35       96.43       96.53    
        96.65       96.78       96.92       97.07       97.22       97.37       97.53       97.68       97.83       97.98    
        98.12       98.26       98.40       98.53       98.67       98.81       98.97       99.13       99.34       99.60    
        100.0    
  34    97.71       97.70       97.68       97.66       97.63       97.59       97.54       97.48       97.41       97.34    
        97.26       97.17       97.08       96.98       96.88       96.77       96.66       96.56       96.45       96.35    
        96.26       96.18       96.11       96.06       96.03       96.02       96.04       96.07       96.12       96.19    
        96.27       96.37       96.47       96.58       96.69       96.80       96.91       97.01       97.12       97.21    
        97.30       97.39       97.46       97.53       97.59       97.64       97.69       97.72       97.75       97.77    
        97.78       97.78       97.78       97.76       97.74       97.71       97.68       97.63       97.58       97.52    
        97.45       97.38       97.30       97.21       97.12       97.03       96.94       96.84       96.75       96.67    
        96.60       96.53       96.48       96.45       96.44       96.45       96.49       96.54       96.62       96.71    
        96.82       96.94       97.07       97.20       97.34       97.49       97.63       97.77       97.92       98.05    
        98.19       98.32       98.45       98.59       98.72       98.85       99.00       99.16       99.36       99.61    
        100.0    
  35    97.77       97.77       97.75       97.73       97.70       97.66       97.61       97.56       97.50       97.43    
        97.35       97.27       97.19       97.10       97.00       96.90       96.80       96.71       96.61       96.52    
        96.44       96.37       96.31       96.27       96.24       96.23       96.24       96.27       96.32       96.38    
        96.45       96.54       96.63       96.73       96.83       96.93       97.03       97.13       97.22       97.31    
        97.40       97.47       97.54       97.61       97.66       97.71       97.76       97.79       97.82       97.83    
        97.85       97.85       97.84       97.83       97.81       97.79       97.75       97.71       97.66       97.60    
        97.54       97.47       97.40       97.32       97.24       97.16       97.07       96.99       96.91       96.84    
        96.77       96.72       96.68       96.65       96.64       96.66       96.69       96.74       96.81       96.89    
        96.99       97.10       97.22       97.34       97.47       97.61       97.74       97.87       98.01       98.14    
        98.26       98.39       98.52       98.64       98.77       98.90       99.04       99.19       99.38       99.63    
        100.0    
  36    97.84       97.84       97.82       97.80       97.77       97.73       97.69       97.64       97.58       97.52    
        97.45       97.38       97.30       97.21       97.13       97.04       96.95       96.86       96.78       96.70    
        96.62       96.56       96.51       96.47       96.45       96.44       96.45       96.47       96.52       96.57    
        96.64       96.71       96.79       96.88       96.97       97.07       97.16       97.25       97.33       97.42    
        97.49       97.57       97.63       97.69       97.74       97.79       97.83       97.86       97.89       97.91    
        97.92       97.92       97.92       97.90       97.89       97.86       97.83       97.79       97.75       97.70    
        97.64       97.58       97.51       97.44       97.37       97.29       97.22       97.14       97.07       97.01    
        96.95       96.90       96.87       96.85       96.84       96.86       96.89       96.93       97.00       97.07    
        97.16       97.26       97.37       97.49       97.61       97.73       97.85       97.98       98.10       98.22    
        98.34       98.46       98.58       98.70       98.82       98.94       99.08       99.23       99.41       99.64    
        100.0    
  37    97.92       97.91       97.90       97.88       97.85       97.82       97.78       97.73       97.68       97.62    
        97.56       97.49       97.41       97.34       97.26       97.18       97.10       97.02       96.94       96.87    
        96.81       96.75       96.71       96.67       96.65       96.65       96.65       96.68       96.71       96.76    
        96.82       96.89       96.96       97.04       97.12       97.21       97.29       97.37       97.45       97.53    
        97.60       97.66       97.72       97.78       97.83       97.87       97.91       97.94       97.96       97.98    
        97.99       97.99       97.99       97.98       97.97       97.94       97.91       97.88       97.84       97.79    
        97.74       97.68       97.62       97.56       97.49       97.43       97.36       97.30       97.23       97.18    
        97.13       97.09       97.06       97.05       97.04       97.06       97.08       97.13       97.18       97.25    
        97.34       97.43       97.53       97.63       97.74       97.85       97.97       98.08       98.20       98.31    
        98.43       98.54       98.65       98.76       98.87       98.99       99.12       99.26       99.43       99.66    
        100.0    
  38    98.00       97.99       97.98       97.96       97.93       97.90       97.87       97.82       97.77       97.72    
        97.66       97.60       97.53       97.46       97.39       97.32       97.25       97.18       97.11       97.05    
        96.99       96.94       96.90       96.87       96.85       96.85       96.86       96.88       96.91       96.95    
        97.00       97.06       97.13       97.20       97.27       97.35       97.42       97.50       97.57       97.64    
        97.70       97.76       97.82       97.87       97.92       97.96       97.99       98.02       98.04       98.06    
        98.07       98.07       98.07       98.06       98.05       98.03       98.00       97.97       97.93       97.89    
        97.84       97.79       97.74       97.68       97.62       97.56       97.51       97.45       97.40       97.35    
        97.31       97.27       97.25       97.24       97.24       97.25       97.28       97.32       97.37       97.43    
        97.51       97.59       97.68       97.78       97.88       97.98       98.08       98.19       98.30       98.40    
        98.51       98.61       98.72       98.82       98.93       99.04       99.16       99.30       99.46       99.68    
        100.0    
  39    98.08       98.07       98.06       98.04       98.02       97.99       97.96       97.92       97.87       97.82    
        97.77       97.71       97.65       97.59       97.53       97.46       97.40       97.33       97.27       97.22    
        97.17       97.13       97.09       97.07       97.05       97.05       97.05       97.07       97.10       97.14    
        97.18       97.23       97.29       97.36       97.42       97.49       97.56       97.62       97.69       97.75    
        97.81       97.87       97.92       97.97       98.01       98.05       98.08       98.11       98.13       98.14    
        98.15       98.16       98.16       98.15       98.13       98.12       98.09       98.06       98.03       97.99    
        97.95       97.91       97.86       97.81       97.75       97.70       97.65       97.60       97.56       97.51    
        97.48       97.45       97.43       97.42       97.43       97.44       97.46       97.50       97.55       97.61    
        97.67       97.75       97.83       97.92       98.01       98.10       98.20       98.30       98.40       98.50    
        98.59       98.69       98.79       98.89       98.99       99.10       99.21       99.34       99.49       99.69    
        100.0    
  40    98.16       98.16       98.15       98.13       98.11       98.08       98.05       98.02       97.98       97.93    
        97.88       97.83       97.78       97.72       97.66       97.60       97.55       97.49       97.44       97.39    
        97.34       97.31       97.28       97.25       97.24       97.24       97.24       97.26       97.28       97.32    
        97.36       97.40       97.46       97.51       97.57       97.63       97.69       97.75       97.81       97.87    
        97.92       97.98       98.02       98.07       98.11       98.14       98.17       98.20       98.22       98.23    
        98.24       98.24       98.24       98.24       98.22       98.21       98.19       98.16       98.13       98.10    
        98.06       98.02       97.98       97.93       97.89       97.84       97.80       97.75       97.71       97.68    
        97.65       97.63       97.61       97.61       97.61       97.62       97.65       97.68       97.72       97.78    
        97.84       97.91       97.98       98.06       98.14       98.23       98.32       98.41       98.50       98.59    
        98.68       98.77       98.86       98.96       99.05       99.15       99.26       99.38       99.52       99.71    
        100.0    
  41    98.25       98.25       98.24       98.22       98.20       98.18       98.15       98.12       98.08       98.04    
        98.00       97.95       97.90       97.85       97.80       97.75       97.69       97.64       97.60       97.55    
        97.52       97.48       97.46       97.44       97.43       97.42       97.43       97.44       97.47       97.49    
        97.53       97.57       97.62       97.67       97.72       97.77       97.83       97.88       97.94       97.99    
        98.04       98.08       98.13       98.17       98.20       98.24       98.26       98.29       98.30       98.32    
        98.33       98.33       98.33       98.32       98.32       98.30       98.28       98.26       98.23       98.20    
        98.17       98.13       98.10       98.06       98.02       97.98       97.94       97.90       97.87       97.84    
        97.81       97.79       97.78       97.78       97.78       97.80       97.82       97.85       97.89       97.94    
        98.00       98.06       98.12       98.20       98.27       98.35       98.43       98.52       98.60       98.68    
        98.77       98.85       98.94       99.02       99.11       99.20       99.30       99.42       99.55       99.73    
        100.0    
  42    98.34       98.34       98.33       98.31       98.30       98.27       98.25       98.22       98.19       98.15    
        98.11       98.07       98.02       97.98       97.93       97.89       97.84       97.80       97.75       97.72    
        97.68       97.65       97.63       97.62       97.61       97.60       97.61       97.62       97.64       97.67    
        97.70       97.73       97.77       97.82       97.86       97.91       97.96       98.01       98.06       98.11    
        98.15       98.19       98.23       98.27       98.30       98.33       98.36       98.38       98.40       98.41    
        98.42       98.42       98.42       98.42       98.41       98.40       98.38       98.36       98.34       98.31    
        98.28       98.25       98.21       98.18       98.15       98.11       98.08       98.05       98.02       97.99    
        97.97       97.96       97.95       97.95       97.95       97.97       97.99       98.02       98.05       98.10    
        98.15       98.20       98.27       98.33       98.40       98.47       98.55       98.62       98.70       98.78    
        98.85       98.93       99.01       99.09       99.17       99.26       99.35       99.46       99.58       99.75    
        100.0    
  43    98.43       98.43       98.42       98.41       98.39       98.37       98.35       98.32       98.29       98.26    
        98.22       98.19       98.15       98.11       98.06       98.02       97.98       97.94       97.91       97.87    
        97.84       97.82       97.80       97.79       97.78       97.78       97.78       97.79       97.81       97.83    
        97.86       97.89       97.93       97.97       98.01       98.05       98.09       98.14       98.18       98.22    
        98.26       98.30       98.34       98.37       98.40       98.43       98.45       98.47       98.49       98.50    
        98.51       98.51       98.51       98.51       98.50       98.49       98.48       98.46       98.44       98.42    
        98.39       98.36       98.33       98.30       98.27       98.24       98.22       98.19       98.16       98.14    
        98.13       98.12       98.11       98.11       98.12       98.13       98.15       98.18       98.21       98.25    
        98.30       98.35       98.40       98.46       98.52       98.59       98.66       98.73       98.80       98.87    
        98.94       99.01       99.08       99.16       99.23       99.31       99.40       99.49       99.61       99.77    
        100.0    
  44    98.53       98.52       98.51       98.50       98.49       98.47       98.45       98.43       98.40       98.37    
        98.34       98.30       98.27       98.23       98.19       98.16       98.12       98.09       98.06       98.03    
        98.00       97.98       97.96       97.95       97.94       97.94       97.95       97.96       97.97       97.99    
        98.01       98.04       98.07       98.11       98.15       98.18       98.22       98.26       98.30       98.34    
        98.38       98.41       98.44       98.48       98.50       98.53       98.55       98.57       98.58       98.59    
        98.60       98.61       98.61       98.60       98.60       98.59       98.58       98.56       98.54       98.52    
        98.50       98.48       98.45       98.42       98.40       98.37       98.35       98.33       98.31       98.29    
        98.28       98.27       98.26       98.26       98.27       98.28       98.30       98.33       98.36       98.39    
        98.44       98.48       98.53       98.59       98.64       98.70       98.76       98.83       98.89       98.96    
        99.02       99.09       99.15       99.22       99.29       99.37       99.44       99.53       99.64       99.79    
        100.0    
  45    98.62       98.62       98.61       98.60       98.59       98.57       98.55       98.53       98.50       98.48    
        98.45       98.42       98.39       98.36       98.32       98.29       98.26       98.23       98.20       98.18    
        98.15       98.13       98.12       98.11       98.10       98.10       98.11       98.11       98.13       98.14    
        98.17       98.19       98.22       98.25       98.28       98.32       98.35       98.39       98.42       98.46    
        98.49       98.52       98.55       98.58       98.60       98.63       98.65       98.66       98.68       98.69    
        98.69       98.70       98.70       98.70       98.69       98.69       98.67       98.66       98.65       98.63    
        98.61       98.59       98.57       98.54       98.52       98.50       98.48       98.46       98.44       98.43    
        98.42       98.41       98.41       98.41       98.42       98.43       98.45       98.47       98.50       98.53    
        98.57       98.61       98.66       98.71       98.76       98.81       98.87       98.93       98.99       99.04    
        99.10       99.16       99.23       99.29       99.35       99.42       99.49       99.57       99.67       99.80    
        100.0    
  46    98.71       98.71       98.71       98.70       98.68       98.67       98.65       98.63       98.61       98.59    
        98.56       98.53       98.51       98.48       98.45       98.42       98.39       98.37       98.34       98.32    
        98.30       98.28       98.27       98.26       98.26       98.25       98.26       98.27       98.28       98.29    
        98.31       98.33       98.36       98.39       98.42       98.45       98.48       98.51       98.54       98.57    
        98.60       98.63       98.66       98.68       98.70       98.73       98.74       98.76       98.77       98.78    
        98.79       98.79       98.79       98.79       98.79       98.78       98.77       98.76       98.75       98.73    
        98.72       98.70       98.68       98.66       98.64       98.62       98.61       98.59       98.58       98.56    
        98.56       98.55       98.55       98.55       98.56       98.57       98.59       98.61       98.64       98.67    
        98.70       98.74       98.78       98.83       98.87       98.92       98.97       99.02       99.08       99.13    
        99.18       99.24       99.30       99.35       99.41       99.47       99.54       99.61       99.70       99.82    
        100.0    
  47    98.81       98.81       98.80       98.79       98.78       98.77       98.75       98.74       98.72       98.69    
        98.67       98.65       98.62       98.60       98.57       98.55       98.52       98.50       98.48       98.46    
        98.44       98.43       98.41       98.41       98.40       98.40       98.41       98.41       98.42       98.44    
        98.45       98.47       98.50       98.52       98.55       98.57       98.60       98.63       98.66       98.68    
        98.71       98.74       98.76       98.78       98.80       98.82       98.84       98.85       98.87       98.88    
        98.88       98.89       98.89       98.89       98.88       98.88       98.87       98.86       98.85       98.84    
        98.82       98.81       98.79       98.77       98.76       98.74       98.73       98.72       98.70       98.69    
        98.69       98.68       98.68       98.69       98.70       98.71       98.72       98.74       98.77       98.80    
        98.83       98.86       98.90       98.94       98.98       99.02       99.07       99.12       99.17       99.21    
        99.26       99.31       99.36       99.42       99.47       99.52       99.58       99.65       99.73       99.84    
        100.0    
  48    98.90       98.90       98.90       98.89       98.88       98.87       98.85       98.84       98.82       98.80    
        98.78       98.76       98.74       98.71       98.69       98.67       98.65       98.63       98.61       98.59    
        98.58       98.56       98.55       98.55       98.54       98.54       98.55       98.55       98.56       98.57    
        98.59       98.61       98.63       98.65       98.67       98.70       98.72       98.75       98.77       98.80    
        98.82       98.84       98.86       98.89       98.90       98.92       98.94       98.95       98.96       98.97    
        98.98       98.98       98.98       98.98       98.98       98.97       98.97       98.96       98.95       98.94    
        98.93       98.91       98.90       98.89       98.87       98.86       98.85       98.84       98.83       98.82    
        98.82       98.81       98.81       98.82       98.83       98.84       98.85       98.87       98.89       98.92    
        98.95       98.98       99.01       99.05       99.09       99.12       99.17       99.21       99.25       99.30    
        99.34       99.39       99.43       99.48       99.53       99.58       99.63       99.69       99.76       99.86    
        100.0    
  49    99.00       99.00       98.99       98.98       98.98       98.97       98.95       98.94       98.92       98.91    
        98.89       98.87       98.85       98.83       98.81       98.79       98.77       98.75       98.74       98.72    
        98.71       98.70       98.69       98.68       98.68       98.68       98.68       98.69       98.70       98.71    
        98.72       98.74       98.75       98.77       98.79       98.81       98.84       98.86       98.88       98.90    
        98.93       98.95       98.97       98.99       99.00       99.02       99.03       99.04       99.05       99.06    
        99.07       99.07       99.08       99.08       99.07       99.07       99.06       99.06       99.05       99.04    
        99.03       99.02       99.01       99.00       98.98       98.97       98.96       98.95       98.95       98.94    
        98.94       98.94       98.94       98.94       98.95       98.96       98.97       98.99       99.01       99.03    
        99.06       99.09       99.12       99.15       99.19       99.22       99.26       99.30       99.34       99.38    
        99.42       99.46       99.50       99.54       99.58       99.63       99.67       99.73       99.79       99.88    
        100.0    
  50    99.09       99.09       99.09       99.08       99.07       99.06       99.05       99.04       99.02       99.01    
        98.99       98.98       98.96       98.94       98.92       98.91       98.89       98.87       98.86       98.85    
        98.84       98.83       98.82       98.81       98.81       98.81       98.81       98.82       98.83       98.84    
        98.85       98.86       98.88       98.89       98.91       98.93       98.95       98.97       98.99       99.01    
        99.03       99.05       99.07       99.08       99.10       99.11       99.13       99.14       99.15       99.16    
        99.16       99.17       99.17       99.17       99.17       99.16       99.16       99.15       99.15       99.14    
        99.13       99.12       99.11       99.10       99.09       99.08       99.07       99.07       99.06       99.06    
        99.05       99.05       99.06       99.06       99.07       99.08       99.09       99.11       99.12       99.15    
        99.17       99.19       99.22       99.25       99.28       99.31       99.35       99.38       99.42       99.45    
        99.49       99.52       99.56       99.60       99.64       99.68       99.72       99.76       99.82       99.89    
        100.0    
  51    99.18       99.18       99.18       99.17       99.17       99.16       99.15       99.14       99.12       99.11    
        99.10       99.08       99.07       99.05       99.04       99.02       99.01       98.99       98.98       98.97    
        98.96       98.95       98.94       98.94       98.94       98.94       98.94       98.94       98.95       98.96    
        98.97       98.98       99.00       99.01       99.03       99.04       99.06       99.08       99.10       99.12    
        99.13       99.15       99.17       99.18       99.20       99.21       99.22       99.23       99.24       99.25    
        99.25       99.26       99.26       99.26       99.26       99.26       99.25       99.25       99.24       99.24    
        99.23       99.22       99.21       99.20       99.20       99.19       99.18       99.18       99.17       99.17    
        99.17       99.17       99.17       99.17       99.18       99.19       99.20       99.22       99.23       99.25    
        99.27       99.30       99.32       99.35       99.37       99.40       99.43       99.46       99.50       99.53    
        99.56       99.59       99.62       99.66       99.69       99.72       99.76       99.80       99.85       99.91    
        100.0    
  52    99.28       99.27       99.27       99.27       99.26       99.25       99.24       99.23       99.22       99.21    
        99.20       99.18       99.17       99.16       99.14       99.13       99.12       99.11       99.09       99.08    
        99.08       99.07       99.06       99.06       99.06       99.06       99.06       99.06       99.07       99.08    
        99.09       99.10       99.11       99.12       99.14       99.15       99.17       99.19       99.20       99.22    
        99.23       99.25       99.26       99.28       99.29       99.30       99.31       99.32       99.33       99.34    
        99.34       99.35       99.35       99.35       99.35       99.35       99.35       99.34       99.34       99.33    
        99.33       99.32       99.31       99.30       99.30       99.29       99.29       99.28       99.28       99.28    
        99.28       99.28       99.28       99.28       99.29       99.30       99.31       99.32       99.34       99.35    
        99.37       99.39       99.42       99.44       99.46       99.49       99.52       99.54       99.57       99.60    
        99.63       99.66       99.68       99.71       99.74       99.77       99.80       99.84       99.88       99.93    
        100.0    
  53    99.37       99.36       99.36       99.36       99.35       99.35       99.34       99.33       99.32       99.31    
        99.30       99.29       99.27       99.26       99.25       99.24       99.23       99.22       99.21       99.20    
        99.19       99.18       99.18       99.18       99.17       99.17       99.18       99.18       99.19       99.19    
        99.20       99.21       99.22       99.23       99.25       99.26       99.27       99.29       99.30       99.32    
        99.33       99.35       99.36       99.37       99.38       99.39       99.40       99.41       99.42       99.43    
        99.43       99.44       99.44       99.44       99.44       99.44       99.44       99.43       99.43       99.42    
        99.42       99.41       99.41       99.40       99.40       99.39       99.39       99.38       99.38       99.38    
        99.38       99.38       99.38       99.39       99.39       99.40       99.41       99.42       99.44       99.45    
        99.47       99.49       99.51       99.53       99.55       99.57       99.60       99.62       99.64       99.67    
        99.69       99.72       99.74       99.77       99.79       99.82       99.84       99.87       99.90       99.94    
        100.0    
  54    99.45       99.45       99.45       99.45       99.44       99.44       99.43       99.42       99.41       99.40    
        99.39       99.38       99.37       99.36       99.35       99.34       99.33       99.32       99.31       99.31    
        99.30       99.29       99.29       99.29       99.29       99.29       99.29       99.29       99.30       99.30    
        99.31       99.32       99.33       99.34       99.35       99.36       99.38       99.39       99.40       99.42    
        99.43       99.44       99.45       99.46       99.47       99.48       99.49       99.50       99.51       99.51    
        99.52       99.52       99.52       99.53       99.53       99.53       99.52       99.52       99.52       99.51    
        99.51       99.51       99.50       99.50       99.49       99.49       99.48       99.48       99.48       99.48    
        99.48       99.48       99.48       99.49       99.49       99.50       99.51       99.52       99.53       99.55    
        99.56       99.58       99.59       99.61       99.63       99.65       99.67       99.69       99.71       99.74    
        99.76       99.78       99.80       99.82       99.84       99.86       99.88       99.90       99.93       99.96    
        100.0    
  55    99.54       99.54       99.54       99.54       99.53       99.53       99.52       99.51       99.51       99.50    
        99.49       99.48       99.47       99.46       99.45       99.44       99.43       99.42       99.42       99.41    
        99.41       99.40       99.40       99.39       99.39       99.39       99.40       99.40       99.40       99.41    
        99.42       99.42       99.43       99.44       99.45       99.46       99.47       99.49       99.50       99.51    
        99.52       99.53       99.54       99.55       99.56       99.57       99.58       99.59       99.59       99.60    
        99.60       99.61       99.61       99.61       99.61       99.61       99.61       99.61       99.61       99.60    
        99.60       99.60       99.59       99.59       99.58       99.58       99.58       99.58       99.57       99.57    
        99.57       99.58       99.58       99.58       99.59       99.59       99.60       99.61       99.62       99.63    
        99.65       99.66       99.68       99.69       99.71       99.73       99.75       99.76       99.78       99.80    
        99.82       99.84       99.85       99.87       99.89       99.90       99.92       99.94       99.95       99.97    
        100.0    
  56    99.63       99.63       99.62       99.62       99.62       99.61       99.61       99.60       99.59       99.59    
[...]
        101.0       101.0       101.0       101.0       101.0       100.9       100.9       100.9       100.9       100.9    
        100.9       100.9       100.9       100.9       100.9       100.9       100.9       100.9       100.9       100.9    
        100.9       100.9       100.9       100.9       100.9       100.9       100.9       100.8       100.8       100.8    
        100.8       100.8       100.8       100.8       100.8       100.8       100.7       100.7       100.7       100.7    
        100.7       100.7       100.6       100.6       100.6       100.6       100.6       100.6       100.6       100.6    
        100.6    
  89    101.0       101.0       101.0       101.0       101.0       101.0       101.0       101.0       101.0       101.0    
        101.0       101.0       101.0       101.0       101.0       101.0       101.0       101.0       101.0       101.0    
        101.0       101.0       101.0       101.0       101.0       101.0       101.0       101.0       101.0       101.0    
        101.0       101.0       101.0       101.0       101.0       101.0       101.0       101.0       101.0       101.0    
        101.0       101.0       101.0       101.0       101.0       101.0       101.0       101.0       101.0       101.0    
        101.0       101.0       101.0       101.0       101.0       101.0       101.0       101.0       100.9       100.9    
        100.9       100.9       100.9       100.9       100.9       100.9       100.9       100.9       100.9       100.9    
        100.9       100.9       100.9       100.9       100.9       100.9       100.9       100.9       100.8       100.8    
        100.8       100.8       100.8       100.8       100.8       100.8       100.7       100.7       100.7       100.7    
        100.7       100.7       100.6       100.6       100.6       100.6       100.6       100.6       100.6       100.6    
        100.6    
  90    101.0       101.0       101.0       101.0       101.0       101.0       101.0       101.0       101.0       101.0    
        101.0       101.0       101.0       101.0       101.0       101.0       101.0       101.0       101.0       101.0    
        101.0       101.0       101.0       101.0       101.0       101.0       101.0       101.0       101.0       101.0    
        101.0       101.0       101.0       101.0       101.0       101.0       101.0       101.0       101.0       101.0    
        101.0       101.0       101.0       101.0       101.0       101.0       101.0       101.0       101.0       101.0    
        101.0       101.0       101.0       101.0       101.0       101.0       101.0       101.0       101.0       101.0    
        101.0       100.9       100.9       100.9       100.9       100.9       100.9       100.9       100.9       100.9    
        100.9       100.9       100.9       100.9       100.9       100.9       100.9       100.9       100.8       100.8    
        100.8       100.8       100.8       100.8       100.8       100.8       100.8       100.7       100.7       100.7    
        100.7       100.7       100.7       100.6       100.6       100.6       100.6       100.6       100.6       100.6    
        100.6    
  91    101.0       101.0       101.0       101.0       101.0       101.0       101.0       101.0       101.0       101.0    
        101.0       101.0       101.0       101.0       101.0       101.0       101.0       101.0       101.0       101.0    
        101.0       101.0       101.0       101.0       101.0       101.0       101.0       101.0       101.0       101.0    
        101.0       101.0       101.0       101.0       101.0       101.0       101.0       101.0       101.0       101.0    
        101.0       101.0       101.0       101.0       101.0       101.0       101.0       101.0       101.0       101.0    
        101.0       101.0       101.0       101.0       101.0       101.0       101.0       101.0       101.0       101.0    
        101.0       101.0       100.9       100.9       100.9       100.9       100.9       100.9       100.9       100.9    
        100.9       100.9       100.9       100.9       100.9       100.9       100.9       100.9       100.9       100.8    
        100.8       100.8       100.8       100.8       100.8       100.8       100.8       100.7       100.7       100.7    
        100.7       100.7       100.7       100.6       100.6       100.6       100.6       100.6       100.6       100.6    
        100.6    
  92    101.0       101.0       101.0       101.0       101.0       101.0       101.0       101.0       101.0       101.0    
        101.0       101.0       101.0       101.0       101.0       101.0       101.0       101.0       101.0       101.0    
        101.0       101.0       101.0       101.0       101.0       101.0       101.0       101.0       101.0       101.0    
        101.0       101.0       101.0       101.0       101.0       101.0       101.0       101.0       101.0       101.0    
        101.0       101.0       101.0       101.0       101.0       101.0       101.0       101.0       101.0       101.0    
        101.0       101.0       101.0       101.0       101.0       101.0       101.0       101.0       101.0       101.0    
        101.0       101.0       100.9       100.9       100.9       100.9       100.9       100.9       100.9       100.9    
        100.9       100.9       100.9       100.9       100.9       100.9       100.9       100.9       100.9       100.8    
        100.8       100.8       100.8       100.8       100.8       100.8       100.8       100.7       100.7       100.7    
        100.7       100.7       100.7       100.6       100.6       100.6       100.6       100.6       100.6       100.6    
        100.6    
  93    101.0       101.0       101.0       101.0       101.0       101.0       101.0       101.0       101.0       101.0    
        101.0       101.0       101.0       101.0       101.0       101.0       101.0       101.0       101.0       101.0    
        101.0       101.0       101.0       101.0       101.0       101.0       101.0       101.0       101.0       101.0    
        101.0       101.0       101.0       101.0       101.0       101.0       101.0       101.0       101.0       101.0    
        101.0       101.0       101.0       101.0       101.0       101.0       101.0       101.0       101.0       101.0    
        101.0       101.0       101.0       101.0       101.0       101.0       101.0       101.0       101.0       101.0    
        101.0       101.0       100.9       100.9       100.9       100.9       100.9       100.9       100.9       100.9    
        100.9       100.9       100.9       100.9       100.9       100.9       100.9       100.9       100.9       100.8    
        100.8       100.8       100.8       100.8       100.8       100.8       100.8       100.7       100.7       100.7    
        100.7       100.7       100.7       100.7       100.6       100.6       100.6       100.6       100.6       100.6    
        100.6    
  94    101.0       101.0       101.0       101.0       101.0       101.0       101.0       101.0       101.0       101.0    
        101.0       101.0       101.0       101.0       101.0       101.0       101.0       101.0       101.0       101.0    
        101.0       101.0       101.0       101.0       101.0       101.0       101.0       101.0       101.0       101.0    
        101.0       101.0       101.0       101.0       101.0       101.0       101.0       101.0       101.0       101.0    
        101.0       101.0       101.0       101.0       101.0       101.0       101.0       101.0       101.0       101.0    
        101.0       101.0       101.0       101.0       101.0       101.0       101.0       101.0       101.0       101.0    
        101.0       101.0       100.9       100.9       100.9       100.9       100.9       100.9       100.9       100.9    
        100.9       100.9       100.9       100.9       100.9       100.9       100.9       100.9       100.9       100.8    
        100.8       100.8       100.8       100.8       100.8       100.8       100.8       100.7       100.7       100.7    
        100.7       100.7       100.7       100.7       100.6       100.6       100.6       100.6       100.6       100.6    
        100.6    
  95    101.0       101.0       101.0       101.0       101.0       101.0       101.0       101.0       101.0       101.0    
        101.0       101.0       101.0       101.0       101.0       101.0       101.0       101.0       101.0       101.0    
        101.0       101.0       101.0       101.0       101.0       101.0       101.0       101.0       101.0       101.0    
        101.0       101.0       101.0       101.0       101.0       101.0       101.0       101.0       101.0       101.0    
        101.0       101.0       101.0       101.0       101.0       101.0       101.0       101.0       101.0       101.0    
        101.0       101.0       101.0       101.0       101.0       101.0       101.0       101.0       101.0       101.0    
        101.0       100.9       100.9       100.9       100.9       100.9       100.9       100.9       100.9       100.9    
        100.9       100.9       100.9       100.9       100.9       100.9       100.9       100.9       100.9       100.8    
        100.8       100.8       100.8       100.8       100.8       100.8       100.8       100.7       100.7       100.7    
        100.7       100.7       100.7       100.7       100.6       100.6       100.6       100.6       100.6       100.6    
        100.6    
  96    101.0       101.0       101.0       101.0       101.0       101.0       101.0       101.0       101.0       101.0    
        101.0       101.0       101.0       101.0       101.0       101.0       101.0       101.0       101.0       101.0    
        101.0       101.0       101.0       101.0       101.0       101.0       101.0       101.0       101.0       101.0    
        101.0       101.0       101.0       101.0       101.0       101.0       101.0       101.0       101.0       101.0    
        101.0       101.0       101.0       101.0       101.0       101.0       101.0       101.0       101.0       101.0    
        101.0       101.0       101.0       101.0       101.0       101.0       101.0       101.0       101.0       101.0    
        101.0       100.9       100.9       100.9       100.9       100.9       100.9       100.9       100.9       100.9    
        100.9       100.9       100.9       100.9       100.9       100.9       100.9       100.9       100.9       100.8    
        100.8       100.8       100.8       100.8       100.8       100.8       100.8       100.8       100.7       100.7    
        100.7       100.7       100.7       100.7       100.6       100.6       100.6       100.6       100.6       100.6    
        100.6    
  97    101.0       101.0       101.0       101.0       101.0       101.0       101.0       101.0       101.0       101.0    
        101.0       101.0       101.0       101.0       101.0       101.0       101.0       101.0       101.0       101.0    
        101.0       101.0       101.0       101.0       101.0       101.0       101.0       101.0       101.0       101.0    
        101.0       101.0       101.0       101.0       101.0       101.0       101.0       101.0       101.0       101.0    
        101.0       101.0       101.0       101.0       101.0       101.0       101.0       101.0       101.0       101.0    
        101.0       101.0       101.0       101.0       101.0       101.0       101.0       101.0       101.0       100.9    
        100.9       100.9       100.9       100.9       100.9       100.9       100.9       100.9       100.9       100.9    
        100.9       100.9       100.9       100.9       100.9       100.9       100.9       100.9       100.9       100.8    
        100.8       100.8       100.8       100.8       100.8       100.8       100.8       100.8       100.7       100.7    
        100.7       100.7       100.7       100.7       100.6       100.6       100.6       100.6       100.6       100.6    
        100.6    
  98    101.0       101.0       101.0       101.0       101.0       101.0       101.0       101.0       101.0       101.0    
        101.0       101.0       101.0       101.0       101.0       101.0       101.0       101.0       101.0       101.0    
        101.0       101.0       101.0       101.0       101.0       101.0       101.0       101.0       101.0       101.0    
        101.0       101.0       101.0       101.0       101.0       101.0       101.0       101.0       101.0       101.0    
        101.0       101.0       101.0       101.0       101.0       101.0       101.0       101.0       101.0       101.0    
        101.0       101.0       101.0       101.0       101.0       101.0       101.0       101.0       100.9       100.9    
        100.9       100.9       100.9       100.9       100.9       100.9       100.9       100.9       100.9       100.9    
        100.9       100.9       100.9       100.9       100.9       100.9       100.9       100.9       100.9       100.8    
        100.8       100.8       100.8       100.8       100.8       100.8       100.8       100.8       100.7       100.7    
        100.7       100.7       100.7       100.7       100.6       100.6       100.6       100.6       100.6       100.6    
        100.6    
  99    101.0       101.0       101.0       101.0       101.0       101.0       101.0       101.0       101.0       101.0    
        101.0       101.0       101.0       101.0       101.0       101.0       101.0       101.0       101.0       101.0    
        101.0       101.0       101.0       101.0       101.0       101.0       101.0       101.0       101.0       101.0    
        101.0       101.0       101.0       101.0       101.0       101.0       101.0       101.0       101.0       101.0    
        101.0       101.0       101.0       101.0       101.0       101.0       101.0       101.0       101.0       101.0    
        101.0       101.0       101.0       101.0       101.0       101.0       101.0       100.9       100.9       100.9    
        100.9       100.9       100.9       100.9       100.9       100.9       100.9       100.9       100.9       100.9    
        100.9       100.9       100.9       100.9       100.9       100.9       100.9       100.9       100.9       100.8    
        100.8       100.8       100.8       100.8       100.8       100.8       100.8       100.7       100.7       100.7    
        100.7       100.7       100.7       100.7       100.6       100.6       100.6       100.6       100.6       100.6    
        100.6    
 100    101.0       101.0       101.0       101.0       101.0       101.0       101.0       101.0       101.0       101.0    
        101.0       101.0       101.0       101.0       101.0       101.0       101.0       101.0       101.0       101.0    
        101.0       101.0       101.0       101.0       101.0       101.0       101.0       101.0       101.0       101.0    
        101.0       101.0       101.0       101.0       101.0       101.0       101.0       101.0       101.0       101.0    
        101.0       101.0       101.0       101.0       101.0       101.0       101.0       101.0       101.0       101.0    
        101.0       101.0       101.0       101.0       101.0       101.0       100.9       100.9       100.9       100.9    
        100.9       100.9       100.9       100.9       100.9       100.9       100.9       100.9       100.9       100.9    
        100.9       100.9       100.9       100.9       100.9       100.9       100.9       100.9       100.8       100.8    
        100.8       100.8       100.8       100.8       100.8       100.8       100.8       100.7       100.7       100.7    
        100.7       100.7       100.7       100.7       100.6       100.6       100.6       100.6       100.6       100.6    
        100.6    
 101    101.0       101.0       101.0       101.0       101.0       101.0       101.0       101.0       101.0       101.0    
        101.0       101.0       101.0       101.0       101.0       101.0       101.0       101.0       101.0       101.0    
        101.0       101.0       101.0       101.0       101.0       101.0       101.0       101.0       101.0       101.0    
        101.0       101.0       101.0       101.0       101.0       101.0       101.0       101.0       101.0       101.0    
        101.0       101.0       101.0       101.0       101.0       101.0       101.0       101.0       101.0       101.0    
        101.0       101.0       101.0       101.0       101.0       100.9       100.9       100.9       100.9       100.9    
        100.9       100.9       100.9       100.9       100.9       100.9       100.9       100.9       100.9       100.9    
        100.9       100.9       100.9       100.9       100.9       100.9       100.9       100.9       100.8       100.8    
        100.8       100.8       100.8       100.8       100.8       100.8       100.8       100.7       100.7       100.7    
        100.7       100.7       100.7       100.7       100.6       100.6       100.6       100.6       100.6       100.6    
        100.6    

 HEAD WILL BE SAVED ON UNIT 1016 AT END OF TIME STEP    1, STRESS PERIOD    1


  VOLUME BUDGET FOR ENTIRE MODEL AT END OF TIME STEP    1, STRESS PERIOD   1
  ---------------------------------------------------------------------------------------------------

     CUMULATIVE VOLUME      L**3       RATES FOR THIS TIME STEP      L**3/T          PACKAGE NAME    
     ------------------                 ------------------------                     ----------------

           IN:                                      IN:
           ---                                      ---
              STO-SS =         108.2317                STO-SS =         108.2317     STORAGE                          
              STO-SY =           0.0000                STO-SY =           0.0000     STORAGE                          
                 WEL =           0.0000                   WEL =           0.0000     WEL_0                            
                RCHA =        1521.1294                  RCHA =        1521.1294     RCH                              
                 CHD =         656.1694                   CHD =         656.1694     CHD_0                            

            TOTAL IN =        2285.5305              TOTAL IN =        2285.5305

          OUT:                                     OUT:
          ----                                     ----
              STO-SS =          22.6794                STO-SS =          22.6794     STORAGE                          
              STO-SY =           0.0000                STO-SY =           0.0000     STORAGE                          
                 WEL =        2073.6923                   WEL =        2073.6923     WEL_0                            
                RCHA =           0.0000                  RCHA =           0.0000     RCH                              
                 CHD =         189.8502                   CHD =         189.8502     CHD_0                            

           TOTAL OUT =        2286.2220             TOTAL OUT =        2286.2220

            IN - OUT =          -0.6915              IN - OUT =          -0.6915

 PERCENT DISCREPANCY =          -0.03     PERCENT DISCREPANCY =          -0.03




         TIME SUMMARY AT END OF TIME STEP    1 IN STRESS PERIOD    1
                    SECONDS     MINUTES      HOURS       DAYS        YEARS
                    -----------------------------------------------------------
   TIME STEP LENGTH  86400.      1440.0      24.000      1.0000     2.73785E-03
 STRESS PERIOD TIME  86400.      1440.0      24.000      1.0000     2.73785E-03
         TOTAL TIME  86400.      1440.0      24.000      1.0000     2.73785E-03


end timestep

