                                   MODFLOW 6
                U.S. GEOLOGICAL SURVEY MODULAR HYDROLOGIC MODEL
                          GROUNDWATER FLOW MODEL (GWF)
                        VERSION 6.4.1 Release 12/09/2022

   MODFLOW 6 compiled Dec 09 2022 18:18:37 with Intel(R) Fortran Intel(R) 64
   Compiler Classic for applications running on Intel(R) 64, Version 2021.7.0
                             Build 20220726_000000

This software has been approved for release by the U.S. Geological 
Survey (USGS). Although the software has been subjected to rigorous 
review, the USGS reserves the right to update the software as needed 
pursuant to further analysis and review. No warranty, expressed or 
implied, is made by the USGS or the U.S. Government as to the 
functionality of the software and related material nor shall the 
fact of release constitute any such warranty. Furthermore, the 
software is released on condition that neither the USGS nor the U.S. 
Government shall be held liable for any damages resulting from its 
authorized or unauthorized use. Also refer to the USGS Water 
Resources Software User Rights Notice for complete use, copyright, 
and distribution information.


As a work of the United States Government, this USGS product is 
in the public domain within the United States. You can copy, 
modify, distribute, and perform the work, even for commercial 
purposes, all without asking permission. Additionally, USGS 
waives copyright and related rights in the work worldwide 
through CC0 1.0 Universal Public Domain Dedication 
(https://creativecommons.org/publicdomain/zero/1.0/).

The following GNU Lesser General Public License (LGPL) libraries
are used in this USGS product:

    SPARSKIT version 2.0
      ilut, luson, and qsplit 
      (https://www-users.cse.umn.edu/~saad/software/SPARSKIT/)

    RCM - Reverse Cuthill McKee Ordering
      (https://people.math.sc.edu/Burkardt/f_src/rcm/rcm.html)

    BLAS - Basic Linear Algebra Subprograms Level 1
      (https://people.math.sc.edu/Burkardt/f_src/blas1_d/blas1_d.html)

    SPARSEKIT - Sparse Matrix Utility Package
      amux, dperm, dvperm, rperm, and cperm
      (https://people.sc.fsu.edu/~jburkardt/f77_src/sparsekit/sparsekit.html)

The following BSD-3 License libraries are used in this USGS product:

    Modern Fortran DAG Library
      Copyright (c) 2018, Jacob Williams
      All rights reserved.
      (https://github.com/jacobwilliams/daglib)

MODFLOW 6 compiler options: /Isrc\libmf6core.a.p /Isrc /I..\src
/Isrc\libmf6_external.a.p /MTd /nologo /warn:general /warn:truncated_source
/stand:f08 /Zi /traceback /O2 /fpe:0 /heap-arrays:0 /traceback /fpp
/Qdiag-disable:7416 /Qdiag-disable:7025 /Qdiag-disable:5268
/Fdsrc\libmf6core.a.p\Utilities_compilerversion.F90.pdb
/module:src\libmf6core.a.p
/Fosrc/libmf6core.a.p/Utilities_compilerversion.F90.obj /c

System command used to initiate simulation:
"C:\Users\ksil8584\OneDrive - The University of Sydney (Staff)\Documents\Modflow\mf6.4.1\bin\mf6.exe"

MODFLOW was compiled using uniform precision.

Real Variables
  KIND: 8
  TINY (smallest non-zero value):    2.225074-308
  HUGE (largest value):    1.797693+308
  PRECISION: 15
  SIZE IN BITS: 64

Integer Variables
  KIND: 4
  HUGE (largest value): 2147483647
  SIZE IN BITS: 32

Long Integer Variables
  KIND: 8
  HUGE (largest value): 9223372036854775807
  SIZE IN BITS: 64

Logical Variables
  KIND: 4
  SIZE IN BITS: 32
 

 OPENED FloPy_ModelS_T1b.dis
 FILE TYPE:DIS6                   UNIT 1005   STATUS:OLD                 
 FORMAT:FORMATTED              ACCESS:SEQUENTIAL          
 ACTION:READ                


 OPENED FloPy_ModelS_T1b.ic
 FILE TYPE:IC6                    UNIT 1006   STATUS:OLD                 
 FORMAT:FORMATTED              ACCESS:SEQUENTIAL          
 ACTION:READ                


 OPENED FloPy_ModelS_T1b.npf
 FILE TYPE:NPF6                   UNIT 1007   STATUS:OLD                 
 FORMAT:FORMATTED              ACCESS:SEQUENTIAL          
 ACTION:READ                


 OPENED FloPy_ModelS_T1b.sto
 FILE TYPE:STO6                   UNIT 1008   STATUS:OLD                 
 FORMAT:FORMATTED              ACCESS:SEQUENTIAL          
 ACTION:READ                


 OPENED FloPy_ModelS_T1b.chd
 FILE TYPE:CHD6                   UNIT 1009   STATUS:OLD                 
 FORMAT:FORMATTED              ACCESS:SEQUENTIAL          
 ACTION:READ                


 OPENED FloPy_ModelS_T1b.oc
 FILE TYPE:OC6                    UNIT 1010   STATUS:OLD                 
 FORMAT:FORMATTED              ACCESS:SEQUENTIAL          
 ACTION:READ                


 OPENED FloPy_ModelS_T1b.wel
 FILE TYPE:WEL6                   UNIT 1011   STATUS:OLD                 
 FORMAT:FORMATTED              ACCESS:SEQUENTIAL          
 ACTION:READ                


 OPENED FloPy_ModelS_T1b.rcha
 FILE TYPE:RCH6                   UNIT 1012   STATUS:OLD                 
 FORMAT:FORMATTED              ACCESS:SEQUENTIAL          
 ACTION:READ                

 NAMEFILE OPTIONS:
    FLOWS WILL BE SAVED TO BUDGET FILE SPECIFIED IN OUTPUT CONTROL
    NEWTON-RAPHSON method enabled for the model.
    NEWTON-RAPHSON UNDER-RELAXATION based on the bottom elevation of the model will be applied to the model.

 DIS -- STRUCTURED GRID DISCRETIZATION PACKAGE, VERSION 2 : 3/27/2014 - INPUT READ FROM UNIT 1005

 Loading input for FLOPY_MODELS_T1B/DIS
 # File generated by Flopy version 3.3.6 on 06/23/2023 at 13:58:57.
   NLAY = 10
   NROW = 101
   NCOL = 101
   DELR = 4.000000000000000
   DELC = 4.000000000000000
   TOP = .000000000000000
   BOTM = variable 3D double precision array ranging from -50.00000000000000 to -5.000000000000000
 Loading input complete...


 NPF -- NODE PROPERTY FLOW PACKAGE, VERSION 1, 3/30/2015 INPUT READ FROM UNIT 1007

 Loading input for FLOPY_MODELS_T1B/NPF
 # File generated by Flopy version 3.3.6 on 06/23/2023 at 13:58:58.
   ICELLTYPE = 1
   K = 1.000000000000000
 Loading input complete...

 Setting Discretization Options
 End Setting Discretization Options

 Setting Discretization Dimensions
    NLAY = 10
    NROW = 101
    NCOL = 101
 End Setting Discretization Dimensions

 Setting Discretization Griddata
    DELR set from input file
    DELC set from input file
    TOP set from input file
    BOTM set from input file
 End Setting Discretization Griddata

 Setting NPF Options
 End Setting NPF Options

 Setting NPF Griddata
    ICELLTYPE set from input file
    K set from input file
    K33 not provided.  Setting K33 = K.
    K22 not provided.  Setting K22 = K.
 End Setting NPF Griddata


 WEL   -- WEL PACKAGE, VERSION 8, 2/22/2014 INPUT READ FROM UNIT 1011
 # File generated by Flopy version 3.3.6 on 06/23/2023 at 13:58:58.

 PROCESSING WEL OPTIONS
 END OF WEL OPTIONS

 PROCESSING WEL DIMENSIONS
    MAXBOUND =       1
 END OF WEL DIMENSIONS

 RCH   -- RCH PACKAGE, VERSION 8, 2/22/2014 INPUT READ FROM UNIT 1012
 # File generated by Flopy version 3.3.6 on 06/23/2023 at 13:58:58.

 PROCESSING RCH OPTIONS
    RECHARGE INPUT WILL BE READ AS ARRAY(S).
 END OF RCHA OPTIONS

 CHD   -- CHD PACKAGE, VERSION 8, 2/22/2014 INPUT READ FROM UNIT 1009
 # File generated by Flopy version 3.3.6 on 06/23/2023 at 13:58:58.

 PROCESSING CHD OPTIONS
 END OF CHD OPTIONS

 PROCESSING CHD DIMENSIONS
    MAXBOUND =     400
 END OF CHD DIMENSIONS

 IC -- INITIAL CONDITIONS PACKAGE, VERSION 8, 3/28/2015 INPUT READ FROM UNIT 1006
 # File generated by Flopy version 3.3.6 on 06/23/2023 at 13:58:57.
 PROCESSING GRIDDATA
 END PROCESSING GRIDDATA

 STO -- STORAGE PACKAGE, VERSION 1, 5/19/2014 INPUT READ FROM UNIT 1008


 # File generated by Flopy version 3.3.6 on 06/23/2023 at 13:58:58.
 PROCESSING STORAGE OPTIONS
 END OF STORAGE OPTIONS
 PROCESSING GRIDDATA

                 ICONVERT = 1

         SPECIFIC STORAGE =  0.1000000E-04

           SPECIFIC YIELD =  0.1500000    
 END PROCESSING GRIDDATA
    BINARY GRID INFORMATION WILL BE WRITTEN TO:
      UNIT NUMBER: 1014
      FILE NAME: C:\Users\ksil8584\OneDrive - The University of Sydney (Staff)\Documents\Modflow\FloPy models\FP_ModelS_1b\output_q_900-1100_r_005-01\FloPy_ModelS_T1b.dis.grb

 OPENED C:\Users\ksil8584\OneDrive - The University of Sydney (Staff)\Documents\Modflow\FloPy models\FP_ModelS_1b\output_q_900-1100_r_005-01\FloPy_ModelS_T1b.dis.grb
 FILE TYPE:DATA(BINARY)   UNIT 1014   STATUS:REPLACE             
 FORMAT:UNFORMATTED            ACCESS:STREAM              
 ACTION:READWRITE           

      THE LAST TIME STEP WILL BE PRINTED
      THE LAST TIME STEP WILL BE PRINTED
 # File generated by Flopy version 3.3.6 on 06/23/2023 at 13:58:58.

 PROCESSING OC OPTIONS

    BUDGET INFORMATION WILL BE WRITTEN TO:
      UNIT NUMBER: 1015
      FILE NAME: FloPy_ModelS_T1b.cbb

 OPENED FloPy_ModelS_T1b.cbb
 FILE TYPE:DATA(BINARY)   UNIT 1015   STATUS:REPLACE             
 FORMAT:UNFORMATTED            ACCESS:STREAM              
 ACTION:READWRITE           

    HEAD INFORMATION WILL BE WRITTEN TO:
      UNIT NUMBER: 1016
      FILE NAME: FloPy_ModelS_T1b.hds

 OPENED FloPy_ModelS_T1b.hds
 FILE TYPE:DATA(BINARY)   UNIT 1016   STATUS:REPLACE             
 FORMAT:UNFORMATTED            ACCESS:STREAM              
 ACTION:READWRITE           

 END OF OC OPTIONS

start timestep kper="1" kstp="1" mode="normal"


 BEGIN READING OUTPUT CONTROL FOR STRESS PERIOD 1
      ALL TIME STEPS WILL BE SAVED
      ALL TIME STEPS WILL BE SAVED
      THE LAST TIME STEP WILL BE PRINTED

 END READING OUTPUT CONTROL FOR STRESS PERIOD 1


 STRESS PERIOD 1 IS TRANSIENT


                 RECHARGE =  0.9754140E-02
 UBDSV1 SAVING           STO-SS ON UNIT   1015 AT TIME STEP      1, STRESS PERIOD      1
 UBDSV1 SAVING           STO-SY ON UNIT   1015 AT TIME STEP      1, STRESS PERIOD      1
 UBDSV1 SAVING     FLOW-JA-FACE ON UNIT   1015 AT TIME STEP      1, STRESS PERIOD      1
 UBDSV06 SAVING              WEL IN MODEL FLOPY_MODELS_T1B PACKAGE FLOPY_MODELS_T1BCONNECTED TO MODEL FLOPY_MODELS_T1B PACKAGE WEL_0            ON UNIT   1015 AT TIME STEP      1, STRESS PERIOD      1
 UBDSV06 SAVING             RCHA IN MODEL FLOPY_MODELS_T1B PACKAGE FLOPY_MODELS_T1BCONNECTED TO MODEL FLOPY_MODELS_T1B PACKAGE RCH              ON UNIT   1015 AT TIME STEP      1, STRESS PERIOD      1
 UBDSV06 SAVING              CHD IN MODEL FLOPY_MODELS_T1B PACKAGE FLOPY_MODELS_T1BCONNECTED TO MODEL FLOPY_MODELS_T1B PACKAGE CHD_0            ON UNIT   1015 AT TIME STEP      1, STRESS PERIOD      1
1
  HEAD IN LAYER   1 AT END OF TIME STEP   1 IN STRESS PERIOD    1
  ---------------------------------------------------------------------------

            1           2           3           4           5           6           7           8           9          10
           11          12          13          14          15          16          17          18          19          20
           21          22          23          24          25          26          27          28          29          30
           31          32          33          34          35          36          37          38          39          40
           41          42          43          44          45          46          47          48          49          50
           51          52          53          54          55          56          57          58          59          60
           61          62          63          64          65          66          67          68          69          70
           71          72          73          74          75          76          77          78          79          80
           81          82          83          84          85          86          87          88          89          90
           91          92          93          94          95          96          97          98          99         100
          101
 ........................................................................................................................
   1    100.0       100.0       100.0       100.0       100.0       100.0       100.0       100.0       100.0       100.0    
        100.0       100.0       100.0       100.0       100.0       100.0       100.0       100.0       100.0       100.0    
        100.0       100.0       100.0       100.0       100.0       100.0       100.0       100.0       100.0       100.0    
        100.0       100.0       100.0       100.0       100.0       100.0       100.0       100.0       100.0       100.0    
        100.0       100.0       100.0       100.0       100.0       100.0       100.0       100.0       100.0       100.0    
        100.0       100.0       100.0       100.0       100.0       100.0       100.0       100.0       100.0       100.0    
        100.0       100.0       100.0       100.0       100.0       100.0       100.0       100.0       100.0       100.0    
        100.0       100.0       100.0       100.0       100.0       100.0       100.0       100.0       100.0       100.0    
        100.0       100.0       100.0       100.0       100.0       100.0       100.0       100.0       100.0       100.0    
        100.0       100.0       100.0       100.0       100.0       100.0       100.0       100.0       100.0       100.0    
        100.0    
   2    100.0       99.92       99.87       99.84       99.82       99.80       99.78       99.76       99.75       99.73    
        99.71       99.70       99.68       99.67       99.65       99.64       99.63       99.62       99.61       99.60    
        99.59       99.59       99.58       99.58       99.58       99.58       99.59       99.59       99.60       99.61    
        99.62       99.63       99.65       99.66       99.68       99.70       99.71       99.73       99.75       99.77    
        99.79       99.81       99.84       99.86       99.88       99.90       99.92       99.94       99.95       99.97    
        99.99       100.0       100.0       100.0       100.1       100.1       100.1       100.1       100.1       100.1    
        100.1       100.1       100.2       100.2       100.2       100.2       100.2       100.2       100.2       100.2    
        100.2       100.2       100.2       100.2       100.2       100.2       100.2       100.2       100.2       100.2    
        100.2       100.2       100.2       100.2       100.2       100.2       100.2       100.2       100.2       100.2    
        100.2       100.2       100.2       100.2       100.2       100.2       100.2       100.2       100.1       100.1    
        100.0    
   3    100.0       99.87       99.79       99.74       99.70       99.67       99.63       99.61       99.58       99.55    
        99.52       99.50       99.47       99.45       99.42       99.40       99.38       99.36       99.35       99.33    
        99.32       99.31       99.30       99.30       99.30       99.30       99.31       99.32       99.33       99.34    
        99.36       99.38       99.41       99.43       99.46       99.49       99.52       99.55       99.59       99.62    
        99.66       99.69       99.72       99.76       99.79       99.83       99.86       99.89       99.92       99.95    
        99.98       100.0       100.0       100.1       100.1       100.1       100.1       100.2       100.2       100.2    
        100.2       100.2       100.3       100.3       100.3       100.3       100.3       100.3       100.3       100.3    
        100.4       100.4       100.4       100.4       100.4       100.4       100.4       100.4       100.4       100.4    
        100.4       100.4       100.4       100.4       100.4       100.4       100.4       100.4       100.4       100.4    
        100.4       100.4       100.4       100.3       100.3       100.3       100.3       100.2       100.2       100.1    
        100.0    
   4    100.0       99.84       99.74       99.67       99.62       99.57       99.53       99.49       99.45       99.42    
        99.38       99.35       99.31       99.28       99.25       99.22       99.19       99.17       99.15       99.13    
        99.11       99.10       99.09       99.08       99.08       99.09       99.09       99.11       99.12       99.14    
        99.17       99.19       99.23       99.26       99.30       99.34       99.38       99.42       99.46       99.51    
        99.55       99.59       99.64       99.68       99.73       99.77       99.81       99.85       99.89       99.93    
        99.97       100.0       100.0       100.1       100.1       100.1       100.2       100.2       100.2       100.3    
        100.3       100.3       100.3       100.3       100.4       100.4       100.4       100.4       100.4       100.4    
        100.5       100.5       100.5       100.5       100.5       100.5       100.5       100.5       100.5       100.5    
        100.5       100.5       100.5       100.5       100.5       100.5       100.5       100.5       100.5       100.5    
        100.5       100.5       100.4       100.4       100.4       100.4       100.4       100.3       100.2       100.2    
        100.0    
   5    100.0       99.82       99.70       99.62       99.55       99.49       99.44       99.40       99.35       99.31    
        99.26       99.22       99.18       99.14       99.11       99.07       99.04       99.01       98.98       98.95    
        98.93       98.92       98.91       98.90       98.90       98.90       98.91       98.93       98.95       98.97    
        99.00       99.03       99.07       99.11       99.16       99.20       99.25       99.30       99.35       99.41    
        99.46       99.51       99.57       99.62       99.67       99.72       99.77       99.82       99.87       99.92    
        99.96       100.0       100.0       100.1       100.1       100.2       100.2       100.2       100.3       100.3    
        100.3       100.4       100.4       100.4       100.4       100.4       100.5       100.5       100.5       100.5    
        100.5       100.5       100.6       100.6       100.6       100.6       100.6       100.6       100.6       100.6    
        100.6       100.6       100.6       100.6       100.6       100.6       100.6       100.6       100.6       100.6    
        100.6       100.5       100.5       100.5       100.5       100.4       100.4       100.4       100.3       100.2    
        100.0    
   6    100.0       99.80       99.67       99.57       99.49       99.43       99.37       99.31       99.26       99.21    
        99.16       99.11       99.07       99.02       98.98       98.94       98.90       98.86       98.83       98.80    
        98.78       98.76       98.74       98.73       98.73       98.74       98.75       98.76       98.79       98.82    
        98.85       98.89       98.93       98.98       99.03       99.08       99.14       99.20       99.26       99.32    
        99.38       99.44       99.50       99.56       99.62       99.68       99.74       99.79       99.85       99.90    
        99.95       100.0       100.0       100.1       100.1       100.2       100.2       100.3       100.3       100.3    
        100.4       100.4       100.4       100.4       100.5       100.5       100.5       100.5       100.6       100.6    
        100.6       100.6       100.6       100.6       100.6       100.7       100.7       100.7       100.7       100.7    
        100.7       100.7       100.7       100.7       100.7       100.7       100.7       100.6       100.6       100.6    
        100.6       100.6       100.6       100.6       100.5       100.5       100.4       100.4       100.3       100.2    
        100.0    
   7    100.0       99.78       99.63       99.53       99.44       99.37       99.30       99.24       99.18       99.12    
        99.07       99.01       98.96       98.91       98.86       98.81       98.77       98.72       98.69       98.65    
        98.62       98.60       98.59       98.58       98.57       98.58       98.59       98.61       98.63       98.67    
        98.71       98.75       98.80       98.85       98.91       98.97       99.04       99.10       99.17       99.24    
        99.30       99.37       99.44       99.51       99.57       99.64       99.70       99.76       99.82       99.88    
        99.94       99.99       100.0       100.1       100.1       100.2       100.2       100.3       100.3       100.4    
        100.4       100.4       100.5       100.5       100.5       100.5       100.6       100.6       100.6       100.6    
        100.6       100.7       100.7       100.7       100.7       100.7       100.7       100.7       100.7       100.7    
        100.7       100.7       100.7       100.7       100.7       100.7       100.7       100.7       100.7       100.7    
        100.7       100.6       100.6       100.6       100.6       100.5       100.5       100.4       100.3       100.2    
        100.0    
   8    100.0       99.76       99.61       99.49       99.40       99.31       99.24       99.17       99.11       99.04    
        98.98       98.92       98.86       98.80       98.74       98.69       98.64       98.59       98.55       98.51    
        98.48       98.45       98.43       98.42       98.42       98.42       98.43       98.46       98.48       98.52    
        98.56       98.61       98.67       98.73       98.79       98.86       98.93       99.01       99.08       99.16    
        99.23       99.31       99.38       99.46       99.53       99.60       99.67       99.74       99.80       99.87    
        99.93       99.99       100.0       100.1       100.1       100.2       100.2       100.3       100.3       100.4    
        100.4       100.5       100.5       100.5       100.5       100.6       100.6       100.6       100.6       100.7    
        100.7       100.7       100.7       100.7       100.7       100.8       100.8       100.8       100.8       100.8    
        100.8       100.8       100.8       100.8       100.8       100.8       100.8       100.7       100.7       100.7    
        100.7       100.7       100.7       100.6       100.6       100.6       100.5       100.4       100.3       100.2    
        100.0    
   9    100.0       99.75       99.58       99.45       99.35       99.26       99.18       99.11       99.03       98.96    
        98.89       98.83       98.76       98.69       98.63       98.57       98.51       98.46       98.41       98.37    
        98.33       98.30       98.28       98.26       98.26       98.26       98.28       98.30       98.33       98.37    
        98.42       98.48       98.54       98.61       98.68       98.75       98.83       98.91       98.99       99.08    
        99.16       99.24       99.32       99.40       99.48       99.56       99.64       99.71       99.78       99.85    
        99.91       99.98       100.0       100.1       100.2       100.2       100.3       100.3       100.4       100.4    
        100.4       100.5       100.5       100.5       100.6       100.6       100.6       100.7       100.7       100.7    
        100.7       100.7       100.8       100.8       100.8       100.8       100.8       100.8       100.8       100.8    
        100.8       100.8       100.8       100.8       100.8       100.8       100.8       100.8       100.8       100.8    
        100.7       100.7       100.7       100.7       100.6       100.6       100.5       100.5       100.4       100.2    
        100.0    
  10    100.0       99.73       99.55       99.42       99.31       99.21       99.12       99.04       98.96       98.89    
        98.81       98.73       98.66       98.59       98.52       98.45       98.39       98.33       98.27       98.22    
        98.18       98.14       98.12       98.10       98.10       98.10       98.12       98.14       98.18       98.22    
        98.27       98.34       98.41       98.48       98.56       98.64       98.73       98.82       98.91       99.00    
        99.09       99.18       99.27       99.35       99.44       99.52       99.60       99.68       99.76       99.83    
        99.90       99.97       100.0       100.1       100.2       100.2       100.3       100.3       100.4       100.4    
        100.5       100.5       100.5       100.6       100.6       100.6       100.7       100.7       100.7       100.7    
        100.8       100.8       100.8       100.8       100.8       100.8       100.8       100.9       100.9       100.9    
        100.9       100.9       100.9       100.9       100.9       100.8       100.8       100.8       100.8       100.8    
        100.8       100.8       100.7       100.7       100.7       100.6       100.5       100.5       100.4       100.2    
        100.0    
  11    100.0       99.71       99.52       99.38       99.26       99.16       99.07       98.98       98.89       98.81    
        98.73       98.64       98.56       98.48       98.41       98.33       98.26       98.19       98.13       98.07    
        98.02       97.98       97.95       97.94       97.93       97.93       97.95       97.98       98.02       98.07    
        98.12       98.19       98.27       98.35       98.44       98.53       98.63       98.72       98.82       98.92    
        99.02       99.11       99.21       99.30       99.39       99.48       99.57       99.65       99.73       99.81    
        99.89       99.96       100.0       100.1       100.2       100.2       100.3       100.3       100.4       100.4    
        100.5       100.5       100.6       100.6       100.6       100.7       100.7       100.7       100.7       100.8    
        100.8       100.8       100.8       100.8       100.9       100.9       100.9       100.9       100.9       100.9    
        100.9       100.9       100.9       100.9       100.9       100.9       100.9       100.9       100.8       100.8    
        100.8       100.8       100.8       100.7       100.7       100.6       100.6       100.5       100.4       100.2    
        100.0    
  12    100.0       99.70       99.50       99.35       99.22       99.11       99.01       98.92       98.83       98.73    
        98.64       98.56       98.47       98.38       98.29       98.21       98.13       98.05       97.98       97.92    
        97.86       97.82       97.78       97.76       97.75       97.76       97.77       97.80       97.85       97.90    
        97.97       98.05       98.13       98.22       98.32       98.42       98.52       98.63       98.73       98.84    
        98.95       99.05       99.15       99.25       99.35       99.45       99.54       99.63       99.71       99.80    
        99.87       99.95       100.0       100.1       100.2       100.2       100.3       100.3       100.4       100.4    
        100.5       100.5       100.6       100.6       100.7       100.7       100.7       100.7       100.8       100.8    
        100.8       100.8       100.9       100.9       100.9       100.9       100.9       100.9       100.9       100.9    
        100.9       100.9       100.9       100.9       100.9       100.9       100.9       100.9       100.9       100.9    
        100.8       100.8       100.8       100.7       100.7       100.6       100.6       100.5       100.4       100.2    
        100.0    
  13    100.0       99.68       99.47       99.31       99.18       99.07       98.96       98.86       98.76       98.66    
        98.56       98.47       98.37       98.27       98.18       98.09       98.00       97.91       97.83       97.76    
        97.70       97.65       97.61       97.58       97.57       97.57       97.59       97.63       97.67       97.74    
        97.81       97.89       97.99       98.09       98.19       98.30       98.42       98.53       98.65       98.76    
        98.88       98.99       99.10       99.20       99.31       99.41       99.51       99.60       99.69       99.78    
        99.86       99.94       100.0       100.1       100.2       100.2       100.3       100.3       100.4       100.5    
        100.5       100.5       100.6       100.6       100.7       100.7       100.7       100.8       100.8       100.8    
        100.9       100.9       100.9       100.9       100.9       100.9       100.9       101.0       101.0       101.0    
        101.0       101.0       101.0       101.0       101.0       100.9       100.9       100.9       100.9       100.9    
        100.9       100.8       100.8       100.8       100.7       100.7       100.6       100.5       100.4       100.2    
        100.0    
  14    100.0       99.67       99.45       99.28       99.14       99.02       98.91       98.80       98.69       98.59    
        98.48       98.38       98.27       98.17       98.06       97.96       97.86       97.77       97.68       97.60    
        97.53       97.47       97.43       97.40       97.38       97.38       97.40       97.44       97.49       97.56    
        97.64       97.74       97.84       97.95       98.07       98.19       98.31       98.43       98.56       98.68    
        98.81       98.93       99.04       99.16       99.27       99.37       99.48       99.58       99.67       99.76    
        99.85       99.93       100.0       100.1       100.2       100.2       100.3       100.4       100.4       100.5    
        100.5       100.6       100.6       100.7       100.7       100.7       100.8       100.8       100.8       100.9    
        100.9       100.9       100.9       100.9       101.0       101.0       101.0       101.0       101.0       101.0    
        101.0       101.0       101.0       101.0       101.0       101.0       101.0       100.9       100.9       100.9    
        100.9       100.9       100.8       100.8       100.7       100.7       100.6       100.5       100.4       100.3    
        100.0    
  15    100.0       99.65       99.42       99.25       99.11       98.98       98.86       98.74       98.63       98.52    
        98.41       98.29       98.18       98.06       97.95       97.84       97.73       97.62       97.53       97.44    
        97.36       97.29       97.24       97.20       97.19       97.19       97.21       97.25       97.31       97.38    
        97.47       97.58       97.69       97.81       97.94       98.07       98.20       98.34       98.47       98.61    
        98.74       98.87       98.99       99.11       99.23       99.34       99.45       99.55       99.65       99.75    
        99.84       99.92       100.0       100.1       100.2       100.2       100.3       100.4       100.4       100.5    
        100.5       100.6       100.6       100.7       100.7       100.8       100.8       100.8       100.8       100.9    
        100.9       100.9       100.9       101.0       101.0       101.0       101.0       101.0       101.0       101.0    
        101.0       101.0       101.0       101.0       101.0       101.0       101.0       101.0       100.9       100.9    
        100.9       100.9       100.8       100.8       100.8       100.7       100.6       100.5       100.4       100.3    
        100.0    
  16    100.0       99.64       99.40       99.22       99.07       98.94       98.81       98.69       98.57       98.45    
        98.33       98.21       98.09       97.96       97.84       97.72       97.60       97.48       97.37       97.27    
        97.18       97.11       97.05       97.01       96.99       96.99       97.01       97.05       97.12       97.20    
        97.30       97.41       97.54       97.67       97.81       97.95       98.10       98.25       98.39       98.53    
        98.67       98.81       98.94       99.07       99.19       99.31       99.42       99.53       99.63       99.73    
        99.83       99.92       100.0       100.1       100.2       100.2       100.3       100.4       100.4       100.5    
        100.5       100.6       100.6       100.7       100.7       100.8       100.8       100.8       100.9       100.9    
        100.9       100.9       101.0       101.0       101.0       101.0       101.0       101.0       101.0       101.0    
        101.0       101.0       101.0       101.0       101.0       101.0       101.0       101.0       101.0       101.0    
        100.9       100.9       100.9       100.8       100.8       100.7       100.6       100.6       100.4       100.3    
        100.0    
  17    100.0       99.63       99.38       99.19       99.04       98.90       98.77       98.64       98.51       98.39    
        98.26       98.13       98.00       97.86       97.73       97.60       97.46       97.34       97.22       97.10    
        97.00       96.92       96.85       96.81       96.78       96.78       96.81       96.85       96.93       97.02    
        97.13       97.25       97.39       97.53       97.69       97.84       98.00       98.15       98.31       98.46    
        98.61       98.75       98.89       99.03       99.16       99.28       99.40       99.51       99.62       99.72    
        99.82       99.91       100.0       100.1       100.2       100.2       100.3       100.4       100.4       100.5    
        100.6       100.6       100.7       100.7       100.8       100.8       100.8       100.9       100.9       100.9    
        100.9       101.0       101.0       101.0       101.0       101.0       101.1       101.1       101.1       101.1    
        101.1       101.1       101.1       101.1       101.1       101.0       101.0       101.0       101.0       101.0    
        100.9       100.9       100.9       100.8       100.8       100.7       100.7       100.6       100.4       100.3    
        100.0    
  18    100.0       99.62       99.36       99.17       99.01       98.86       98.72       98.59       98.46       98.33    
        98.19       98.05       97.91       97.77       97.62       97.48       97.34       97.20       97.06       96.94    
        96.83       96.73       96.66       96.60       96.58       96.58       96.60       96.66       96.73       96.84    
        96.96       97.09       97.24       97.40       97.56       97.73       97.90       98.07       98.23       98.39    
        98.55       98.70       98.85       98.99       99.12       99.25       99.38       99.49       99.61       99.71    
        99.81       99.91       100.0       100.1       100.2       100.2       100.3       100.4       100.5       100.5    
        100.6       100.6       100.7       100.7       100.8       100.8       100.8       100.9       100.9       100.9    
        101.0       101.0       101.0       101.0       101.1       101.1       101.1       101.1       101.1       101.1    
        101.1       101.1       101.1       101.1       101.1       101.1       101.1       101.0       101.0       101.0    
        101.0       100.9       100.9       100.9       100.8       100.7       100.7       100.6       100.4       100.3    
        100.0    
  19    100.0       99.61       99.35       99.15       98.98       98.83       98.69       98.55       98.41       98.27    
        98.13       97.98       97.83       97.68       97.53       97.37       97.22       97.06       96.92       96.78    
        96.66       96.55       96.47       96.41       96.37       96.37       96.40       96.46       96.55       96.66    
        96.79       96.94       97.10       97.27       97.45       97.63       97.81       97.99       98.16       98.33    
        98.50       98.66       98.81       98.96       99.10       99.23       99.36       99.48       99.60       99.71    
        99.81       99.91       100.0       100.1       100.2       100.3       100.3       100.4       100.5       100.5    
        100.6       100.6       100.7       100.7       100.8       100.8       100.9       100.9       100.9       101.0    
        101.0       101.0       101.0       101.1       101.1       101.1       101.1       101.1       101.1       101.1    
        101.1       101.1       101.1       101.1       101.1       101.1       101.1       101.1       101.0       101.0    
        101.0       100.9       100.9       100.9       100.8       100.8       100.7       100.6       100.5       100.3    
        100.0    
  20    100.0       99.60       99.33       99.13       98.95       98.80       98.65       98.51       98.37       98.22    
        98.07       97.92       97.76       97.60       97.44       97.27       97.10       96.94       96.78       96.63    
        96.50       96.38       96.29       96.22       96.18       96.18       96.21       96.27       96.37       96.49    
        96.63       96.79       96.97       97.15       97.34       97.53       97.73       97.91       98.10       98.28    
        98.45       98.62       98.78       98.93       99.07       99.21       99.34       99.47       99.59       99.70    
        99.81       99.91       100.0       100.1       100.2       100.3       100.3       100.4       100.5       100.5    
        100.6       100.7       100.7       100.8       100.8       100.8       100.9       100.9       101.0       101.0    
        101.0       101.0       101.1       101.1       101.1       101.1       101.1       101.1       101.1       101.1    
        101.1       101.1       101.1       101.1       101.1       101.1       101.1       101.1       101.1       101.0    
        101.0       101.0       100.9       100.9       100.8       100.8       100.7       100.6       100.5       100.3    
        100.0    
  21    100.0       99.59       99.32       99.11       98.93       98.78       98.62       98.48       98.33       98.18    
        98.02       97.86       97.70       97.53       97.36       97.18       97.00       96.83       96.66       96.50    
        96.35       96.22       96.12       96.04       96.00       96.00       96.03       96.10       96.20       96.33    
        96.49       96.66       96.85       97.05       97.25       97.45       97.65       97.85       98.04       98.23    
        98.41       98.58       98.75       98.91       99.06       99.20       99.33       99.46       99.59       99.70    
        99.81       99.91       100.0       100.1       100.2       100.3       100.4       100.4       100.5       100.6    
        100.6       100.7       100.7       100.8       100.8       100.9       100.9       100.9       101.0       101.0    
        101.0       101.1       101.1       101.1       101.1       101.1       101.1       101.2       101.2       101.2    
        101.2       101.2       101.2       101.1       101.1       101.1       101.1       101.1       101.1       101.0    
        101.0       101.0       100.9       100.9       100.8       100.8       100.7       100.6       100.5       100.3    
        100.0    
  22    100.0       99.59       99.31       99.10       98.92       98.76       98.60       98.45       98.30       98.14    
        97.98       97.82       97.65       97.47       97.29       97.11       96.92       96.73       96.55       96.38    
        96.22       96.08       95.97       95.89       95.84       95.84       95.87       95.94       96.05       96.20    
        96.36       96.55       96.75       96.96       97.17       97.38       97.59       97.80       98.00       98.19    
        98.38       98.56       98.73       98.89       99.04       99.19       99.33       99.46       99.59       99.70    
        99.81       99.92       100.0       100.1       100.2       100.3       100.4       100.4       100.5       100.6    
        100.6       100.7       100.7       100.8       100.8       100.9       100.9       101.0       101.0       101.0    
        101.1       101.1       101.1       101.1       101.1       101.2       101.2       101.2       101.2       101.2    
        101.2       101.2       101.2       101.2       101.2       101.1       101.1       101.1       101.1       101.1    
        101.0       101.0       101.0       100.9       100.9       100.8       100.7       100.6       100.5       100.3    
        100.0    
  23    100.0       99.58       99.30       99.09       98.91       98.74       98.59       98.43       98.28       98.12    
        97.95       97.78       97.61       97.43       97.24       97.05       96.85       96.66       96.47       96.29    
        96.12       95.97       95.85       95.76       95.71       95.71       95.74       95.82       95.94       96.08    
        96.26       96.46       96.67       96.88       97.11       97.33       97.55       97.76       97.97       98.17    
        98.36       98.54       98.72       98.88       99.04       99.19       99.33       99.46       99.59       99.71    
        99.82       99.93       100.0       100.1       100.2       100.3       100.4       100.5       100.5       100.6    
        100.7       100.7       100.8       100.8       100.9       100.9       100.9       101.0       101.0       101.0    
        101.1       101.1       101.1       101.1       101.2       101.2       101.2       101.2       101.2       101.2    
        101.2       101.2       101.2       101.2       101.2       101.2       101.1       101.1       101.1       101.1    
        101.0       101.0       101.0       100.9       100.9       100.8       100.7       100.6       100.5       100.3    
        100.0    
  24    100.0       99.58       99.30       99.08       98.90       98.73       98.58       98.42       98.26       98.10    
        97.94       97.76       97.58       97.40       97.20       97.01       96.81       96.60       96.41       96.22    
        96.04       95.89       95.76       95.67       95.62       95.61       95.65       95.73       95.85       96.01    
        96.19       96.39       96.61       96.84       97.07       97.29       97.52       97.74       97.95       98.15    
        98.35       98.54       98.71       98.88       99.04       99.19       99.34       99.47       99.60       99.72    
        99.83       99.94       100.0       100.1       100.2       100.3       100.4       100.5       100.5       100.6    
        100.7       100.7       100.8       100.8       100.9       100.9       101.0       101.0       101.0       101.1    
        101.1       101.1       101.1       101.2       101.2       101.2       101.2       101.2       101.2       101.2    
        101.2       101.2       101.2       101.2       101.2       101.2       101.2       101.1       101.1       101.1    
        101.1       101.0       101.0       100.9       100.9       100.8       100.7       100.6       100.5       100.3    
        100.0    
  25    100.0       99.58       99.30       99.08       98.90       98.73       98.57       98.42       98.26       98.10    
        97.93       97.75       97.57       97.38       97.19       96.99       96.78       96.58       96.37       96.18    
        96.00       95.84       95.71       95.62       95.56       95.55       95.59       95.68       95.80       95.96    
        96.15       96.36       96.58       96.81       97.05       97.28       97.51       97.73       97.95       98.15    
        98.35       98.54       98.72       98.89       99.05       99.20       99.35       99.48       99.61       99.73    
        99.85       99.96       100.1       100.2       100.2       100.3       100.4       100.5       100.6       100.6    
        100.7       100.8       100.8       100.9       100.9       100.9       101.0       101.0       101.1       101.1    
        101.1       101.1       101.2       101.2       101.2       101.2       101.2       101.2       101.2       101.2    
        101.2       101.2       101.2       101.2       101.2       101.2       101.2       101.2       101.1       101.1    
        101.1       101.0       101.0       100.9       100.9       100.8       100.7       100.6       100.5       100.3    
        100.0    
  26    100.0       99.58       99.30       99.09       98.90       98.74       98.58       98.42       98.26       98.10    
        97.93       97.76       97.57       97.38       97.19       96.99       96.78       96.58       96.37       96.18    
        96.00       95.84       95.71       95.61       95.55       95.55       95.58       95.67       95.80       95.96    
        96.15       96.36       96.58       96.82       97.05       97.29       97.52       97.74       97.96       98.16    
        98.36       98.55       98.73       98.90       99.06       99.22       99.36       99.50       99.63       99.75    
        99.87       99.98       100.1       100.2       100.3       100.4       100.4       100.5       100.6       100.6    
        100.7       100.8       100.8       100.9       100.9       101.0       101.0       101.0       101.1       101.1    
        101.1       101.2       101.2       101.2       101.2       101.2       101.2       101.3       101.3       101.3    
        101.3       101.3       101.2       101.2       101.2       101.2       101.2       101.2       101.1       101.1    
        101.1       101.1       101.0       101.0       100.9       100.8       100.7       100.6       100.5       100.3    
        100.0    
  27    100.0       99.59       99.31       99.09       98.91       98.75       98.59       98.43       98.28       98.12    
        97.95       97.77       97.59       97.40       97.21       97.01       96.81       96.60       96.40       96.21    
        96.03       95.87       95.74       95.65       95.59       95.58       95.62       95.71       95.83       95.99    
        96.18       96.39       96.62       96.85       97.08       97.31       97.54       97.77       97.98       98.19    
        98.39       98.58       98.76       98.93       99.09       99.24       99.39       99.52       99.65       99.77    
        99.89      100.00       100.1       100.2       100.3       100.4       100.5       100.5       100.6       100.7    
        100.7       100.8       100.8       100.9       100.9       101.0       101.0       101.1       101.1       101.1    
        101.2       101.2       101.2       101.2       101.2       101.3       101.3       101.3       101.3       101.3    
        101.3       101.3       101.3       101.3       101.2       101.2       101.2       101.2       101.2       101.1    
        101.1       101.1       101.0       101.0       100.9       100.8       100.8       100.6       100.5       100.3    
        100.0    
  28    100.0       99.59       99.32       99.11       98.93       98.76       98.61       98.46       98.30       98.14    
        97.98       97.80       97.63       97.44       97.25       97.05       96.85       96.66       96.46       96.27    
        96.10       95.94       95.82       95.73       95.68       95.67       95.71       95.79       95.91       96.07    
        96.25       96.46       96.68       96.90       97.13       97.36       97.59       97.81       98.02       98.23    
        98.42       98.61       98.79       98.96       99.12       99.27       99.41       99.55       99.68       99.80    
        99.92       100.0       100.1       100.2       100.3       100.4       100.5       100.6       100.6       100.7    
        100.8       100.8       100.9       100.9       101.0       101.0       101.1       101.1       101.1       101.2    
        101.2       101.2       101.2       101.2       101.3       101.3       101.3       101.3       101.3       101.3    
        101.3       101.3       101.3       101.3       101.3       101.2       101.2       101.2       101.2       101.1    
        101.1       101.1       101.0       101.0       100.9       100.8       100.8       100.7       100.5       100.3    
        100.0    
  29    100.0       99.60       99.33       99.12       98.95       98.79       98.63       98.48       98.33       98.18    
        98.02       97.85       97.67       97.49       97.31       97.12       96.93       96.73       96.55       96.37    
        96.20       96.05       95.94       95.85       95.80       95.80       95.83       95.91       96.03       96.18    
        96.36       96.56       96.77       96.99       97.21       97.43       97.65       97.87       98.08       98.28    
        98.47       98.66       98.83       99.00       99.16       99.31       99.45       99.58       99.71       99.83    
        99.94       100.1       100.2       100.2       100.3       100.4       100.5       100.6       100.7       100.7    
        100.8       100.8       100.9       100.9       101.0       101.0       101.1       101.1       101.1       101.2    
        101.2       101.2       101.2       101.3       101.3       101.3       101.3       101.3       101.3       101.3    
        101.3       101.3       101.3       101.3       101.3       101.3       101.2       101.2       101.2       101.2    
        101.1       101.1       101.0       101.0       100.9       100.9       100.8       100.7       100.5       100.3    
        100.0    
  30    100.0       99.61       99.34       99.14       98.97       98.82       98.67       98.52       98.37       98.22    
        98.07       97.90       97.74       97.56       97.38       97.20       97.02       96.84       96.66       96.49    
        96.33       96.20       96.08       96.01       95.96       95.96       95.99       96.07       96.18       96.32    
        96.49       96.68       96.88       97.09       97.31       97.52       97.74       97.94       98.15       98.34    
        98.53       98.71       98.88       99.04       99.20       99.35       99.49       99.62       99.75       99.86    
        99.98       100.1       100.2       100.3       100.4       100.5       100.5       100.6       100.7       100.7    
        100.8       100.9       100.9       101.0       101.0       101.1       101.1       101.1       101.2       101.2    
        101.2       101.2       101.3       101.3       101.3       101.3       101.3       101.3       101.3       101.3    
        101.3       101.3       101.3       101.3       101.3       101.3       101.3       101.2       101.2       101.2    
        101.1       101.1       101.1       101.0       100.9       100.9       100.8       100.7       100.5       100.3    
        100.0    
  31    100.0       99.62       99.36       99.17       99.00       98.85       98.71       98.56       98.42       98.27    
        98.12       97.97       97.81       97.64       97.47       97.30       97.13       96.96       96.79       96.63    
        96.49       96.36       96.26       96.19       96.15       96.15       96.18       96.25       96.36       96.49    
        96.65       96.83       97.02       97.22       97.42       97.63       97.83       98.03       98.23       98.42    
        98.60       98.77       98.94       99.10       99.25       99.40       99.53       99.66       99.79       99.90    
        100.0       100.1       100.2       100.3       100.4       100.5       100.6       100.6       100.7       100.8    
        100.8       100.9       100.9       101.0       101.0       101.1       101.1       101.2       101.2       101.2    
        101.2       101.3       101.3       101.3       101.3       101.3       101.3       101.3       101.3       101.3    
        101.3       101.3       101.3       101.3       101.3       101.3       101.3       101.2       101.2       101.2    
        101.2       101.1       101.1       101.0       100.9       100.9       100.8       100.7       100.5       100.3    
        100.0    
  32    100.0       99.63       99.38       99.19       99.03       98.89       98.75       98.61       98.48       98.34    
        98.19       98.05       97.89       97.74       97.58       97.41       97.25       97.09       96.94       96.79    
        96.66       96.55       96.46       96.39       96.36       96.36       96.39       96.46       96.56       96.68    
        96.83       96.99       97.17       97.36       97.55       97.75       97.94       98.13       98.32       98.50    
        98.67       98.84       99.00       99.16       99.31       99.45       99.58       99.71       99.83       99.94    
        100.1       100.2       100.3       100.3       100.4       100.5       100.6       100.7       100.7       100.8    
        100.9       100.9       101.0       101.0       101.1       101.1       101.1       101.2       101.2       101.2    
        101.3       101.3       101.3       101.3       101.3       101.3       101.4       101.4       101.4       101.4    
        101.4       101.4       101.3       101.3       101.3       101.3       101.3       101.3       101.2       101.2    
        101.2       101.1       101.1       101.0       101.0       100.9       100.8       100.7       100.5       100.3    
        100.0    
  33    100.0       99.65       99.41       99.23       99.07       98.93       98.80       98.67       98.54       98.41    
        98.27       98.13       97.99       97.84       97.69       97.54       97.39       97.24       97.10       96.97    
        96.85       96.75       96.67       96.61       96.58       96.58       96.62       96.68       96.77       96.88    
        97.02       97.17       97.34       97.51       97.69       97.88       98.06       98.24       98.42       98.59    
        98.76       98.92       99.08       99.23       99.37       99.51       99.64       99.76       99.88       99.99    
        100.1       100.2       100.3       100.4       100.5       100.5       100.6       100.7       100.8       100.8    
        100.9       100.9       101.0       101.0       101.1       101.1       101.2       101.2       101.2       101.3    
        101.3       101.3       101.3       101.3       101.4       101.4       101.4       101.4       101.4       101.4    
        101.4       101.4       101.4       101.4       101.3       101.3       101.3       101.3       101.2       101.2    
        101.2       101.1       101.1       101.0       101.0       100.9       100.8       100.7       100.5       100.3    
        100.0    
  34    100.0       99.66       99.43       99.26       99.11       98.98       98.85       98.73       98.61       98.48    
        98.35       98.22       98.09       97.95       97.81       97.67       97.53       97.40       97.27       97.15    
        97.05       96.96       96.88       96.84       96.81       96.82       96.85       96.90       96.99       97.09    
        97.22       97.36       97.51       97.67       97.84       98.01       98.19       98.36       98.52       98.69    
        98.85       99.00       99.15       99.30       99.44       99.57       99.69       99.81       99.93       100.0    
        100.1       100.2       100.3       100.4       100.5       100.6       100.7       100.7       100.8       100.9    
        100.9       101.0       101.0       101.1       101.1       101.2       101.2       101.2       101.3       101.3    
        101.3       101.3       101.3       101.4       101.4       101.4       101.4       101.4       101.4       101.4    
        101.4       101.4       101.4       101.4       101.4       101.3       101.3       101.3       101.3       101.2    
        101.2       101.1       101.1       101.0       101.0       100.9       100.8       100.7       100.5       100.3    
        100.0    
  35    100.0       99.68       99.46       99.30       99.16       99.03       98.91       98.79       98.68       98.56    
        98.44       98.32       98.19       98.07       97.94       97.81       97.69       97.56       97.45       97.34    
        97.25       97.17       97.11       97.07       97.05       97.05       97.08       97.13       97.21       97.31    
        97.42       97.55       97.69       97.84       98.00       98.16       98.32       98.48       98.64       98.79    
        98.94       99.09       99.24       99.37       99.51       99.63       99.75       99.87       99.98       100.1    
        100.2       100.3       100.4       100.5       100.5       100.6       100.7       100.8       100.8       100.9    
        100.9       101.0       101.0       101.1       101.1       101.2       101.2       101.2       101.3       101.3    
        101.3       101.3       101.4       101.4       101.4       101.4       101.4       101.4       101.4       101.4    
        101.4       101.4       101.4       101.4       101.4       101.3       101.3       101.3       101.3       101.2    
        101.2       101.2       101.1       101.0       101.0       100.9       100.8       100.7       100.5       100.3    
        100.0    
  36    100.0       99.70       99.49       99.34       99.20       99.08       98.97       98.86       98.75       98.64    
        98.53       98.42       98.30       98.19       98.07       97.95       97.84       97.73       97.63       97.53    
        97.45       97.38       97.33       97.29       97.28       97.29       97.31       97.36       97.43       97.52    
        97.63       97.75       97.88       98.01       98.16       98.31       98.45       98.60       98.75       98.90    
        99.04       99.18       99.32       99.45       99.58       99.70       99.82       99.93       100.0       100.1    
        100.2       100.3       100.4       100.5       100.6       100.7       100.7       100.8       100.9       100.9    
        101.0       101.0       101.1       101.1       101.2       101.2       101.2       101.3       101.3       101.3    
        101.3       101.4       101.4       101.4       101.4       101.4       101.4       101.4       101.4       101.4    
        101.4       101.4       101.4       101.4       101.4       101.4       101.3       101.3       101.3       101.2    
        101.2       101.2       101.1       101.1       101.0       100.9       100.8       100.7       100.6       100.3    
        100.0    
  37    100.0       99.71       99.52       99.38       99.25       99.14       99.04       98.93       98.83       98.73    
        98.63       98.52       98.42       98.31       98.20       98.10       98.00       97.90       97.81       97.73    
        97.65       97.59       97.55       97.52       97.51       97.52       97.54       97.59       97.65       97.74    
        97.83       97.94       98.06       98.19       98.32       98.45       98.59       98.73       98.87       99.01    
        99.15       99.28       99.41       99.53       99.66       99.77       99.89       99.99       100.1       100.2    
        100.3       100.4       100.5       100.5       100.6       100.7       100.8       100.8       100.9       101.0    
        101.0       101.1       101.1       101.1       101.2       101.2       101.3       101.3       101.3       101.3    
        101.4       101.4       101.4       101.4       101.4       101.4       101.4       101.4       101.4       101.4    
        101.4       101.4       101.4       101.4       101.4       101.4       101.3       101.3       101.3       101.3    
        101.2       101.2       101.1       101.1       101.0       100.9       100.8       100.7       100.6       100.3    
        100.0    
  38    100.0       99.73       99.55       99.42       99.30       99.20       99.10       99.01       98.91       98.82    
        98.72       98.63       98.53       98.43       98.34       98.25       98.15       98.07       97.99       97.91    
        97.85       97.80       97.76       97.74       97.73       97.74       97.77       97.81       97.87       97.94    
        98.03       98.13       98.24       98.36       98.48       98.60       98.73       98.86       98.99       99.12    
        99.25       99.38       99.50       99.62       99.73       99.85       99.95       100.1       100.2       100.3    
        100.3       100.4       100.5       100.6       100.7       100.7       100.8       100.9       100.9       101.0    
        101.0       101.1       101.1       101.2       101.2       101.3       101.3       101.3       101.3       101.4    
        101.4       101.4       101.4       101.4       101.5       101.5       101.5       101.5       101.5       101.5    
        101.5       101.4       101.4       101.4       101.4       101.4       101.4       101.3       101.3       101.3    
        101.2       101.2       101.1       101.1       101.0       100.9       100.8       100.7       100.6       100.3    
        100.0    
  39    100.0       99.75       99.59       99.46       99.35       99.26       99.17       99.08       98.99       98.91    
        98.82       98.73       98.65       98.56       98.47       98.39       98.31       98.23       98.16       98.10    
        98.04       98.00       97.97       97.95       97.95       97.96       97.98       98.02       98.08       98.15    
        98.23       98.32       98.42       98.52       98.64       98.75       98.87       98.99       99.12       99.24    
        99.36       99.48       99.59       99.70       99.81       99.92       100.0       100.1       100.2       100.3    
        100.4       100.5       100.6       100.6       100.7       100.8       100.8       100.9       101.0       101.0    
        101.1       101.1       101.2       101.2       101.2       101.3       101.3       101.3       101.4       101.4    
        101.4       101.4       101.4       101.5       101.5       101.5       101.5       101.5       101.5       101.5    
        101.5       101.5       101.4       101.4       101.4       101.4       101.4       101.3       101.3       101.3    
        101.2       101.2       101.1       101.1       101.0       100.9       100.8       100.7       100.6       100.3    
        100.0    
  40    100.0       99.77       99.62       99.51       99.41       99.32       99.24       99.16       99.08       99.00    
        98.92       98.84       98.76       98.68       98.61       98.53       98.46       98.39       98.33       98.28    
        98.23       98.19       98.17       98.15       98.15       98.16       98.19       98.23       98.28       98.34    
        98.42       98.50       98.59       98.69       98.79       98.90       99.01       99.12       99.24       99.35    
        99.46       99.57       99.68       99.79       99.89      100.00       100.1       100.2       100.3       100.4    
        100.5       100.5       100.6       100.7       100.8       100.8       100.9       100.9       101.0       101.1    
        101.1       101.1       101.2       101.2       101.3       101.3       101.3       101.4       101.4       101.4    
        101.4       101.5       101.5       101.5       101.5       101.5       101.5       101.5       101.5       101.5    
        101.5       101.5       101.5       101.4       101.4       101.4       101.4       101.4       101.3       101.3    
        101.2       101.2       101.1       101.1       101.0       100.9       100.8       100.7       100.6       100.3    
        100.0    
  41    100.0       99.79       99.66       99.55       99.46       99.38       99.30       99.23       99.16       99.09    
        99.02       98.95       98.88       98.81       98.74       98.67       98.61       98.55       98.50       98.45    
        98.41       98.38       98.36       98.35       98.35       98.36       98.39       98.42       98.47       98.53    
        98.60       98.67       98.76       98.85       98.94       99.04       99.15       99.25       99.36       99.46    
        99.57       99.67       99.78       99.88       99.98       100.1       100.2       100.3       100.3       100.4    
        100.5       100.6       100.7       100.7       100.8       100.9       100.9       101.0       101.0       101.1    
        101.1       101.2       101.2       101.3       101.3       101.3       101.4       101.4       101.4       101.4    
        101.5       101.5       101.5       101.5       101.5       101.5       101.5       101.5       101.5       101.5    
        101.5       101.5       101.5       101.5       101.4       101.4       101.4       101.4       101.3       101.3    
        101.3       101.2       101.2       101.1       101.0       100.9       100.9       100.7       100.6       100.3    
        100.0    
  42    100.0       99.81       99.69       99.59       99.51       99.44       99.37       99.31       99.24       99.18    
        99.11       99.05       98.99       98.93       98.87       98.81       98.75       98.70       98.66       98.62    
        98.58       98.56       98.54       98.54       98.54       98.55       98.58       98.61       98.66       98.71    
        98.77       98.84       98.92       99.00       99.09       99.18       99.28       99.38       99.48       99.57    
        99.67       99.77       99.87       99.96       100.1       100.1       100.2       100.3       100.4       100.5    
        100.6       100.6       100.7       100.8       100.8       100.9       101.0       101.0       101.1       101.1    
        101.2       101.2       101.3       101.3       101.3       101.4       101.4       101.4       101.4       101.5    
        101.5       101.5       101.5       101.5       101.5       101.5       101.5       101.5       101.5       101.5    
        101.5       101.5       101.5       101.5       101.5       101.4       101.4       101.4       101.3       101.3    
        101.3       101.2       101.2       101.1       101.0       101.0       100.9       100.7       100.6       100.4    
        100.0    
  43    100.0       99.84       99.72       99.64       99.57       99.50       99.44       99.38       99.32       99.27    
        99.21       99.15       99.10       99.04       98.99       98.94       98.89       98.85       98.81       98.78    
        98.75       98.73       98.72       98.71       98.72       98.73       98.76       98.79       98.83       98.88    
        98.94       99.00       99.08       99.15       99.24       99.32       99.41       99.50       99.59       99.68    
        99.78       99.87       99.96       100.0       100.1       100.2       100.3       100.4       100.5       100.5    
        100.6       100.7       100.8       100.8       100.9       100.9       101.0       101.1       101.1       101.2    
        101.2       101.2       101.3       101.3       101.4       101.4       101.4       101.4       101.5       101.5    
        101.5       101.5       101.5       101.5       101.5       101.5       101.5       101.5       101.5       101.5    
        101.5       101.5       101.5       101.5       101.5       101.4       101.4       101.4       101.4       101.3    
        101.3       101.2       101.2       101.1       101.0       101.0       100.9       100.7       100.6       100.4    
        100.0    
  44    100.0       99.86       99.76       99.68       99.62       99.56       99.51       99.46       99.40       99.35    
        99.30       99.25       99.20       99.16       99.11       99.07       99.03       98.99       98.96       98.93    
        98.91       98.89       98.88       98.88       98.89       98.90       98.93       98.96       99.00       99.04    
        99.10       99.16       99.23       99.30       99.37       99.45       99.53       99.62       99.70       99.79    
        99.88       99.96       100.0       100.1       100.2       100.3       100.4       100.5       100.5       100.6    
        100.7       100.7       100.8       100.9       100.9       101.0       101.0       101.1       101.1       101.2    
        101.2       101.3       101.3       101.3       101.4       101.4       101.4       101.5       101.5       101.5    
        101.5       101.5       101.5       101.5       101.6       101.6       101.6       101.6       101.6       101.5    
        101.5       101.5       101.5       101.5       101.5       101.5       101.4       101.4       101.4       101.3    
        101.3       101.2       101.2       101.1       101.0       101.0       100.9       100.7       100.6       100.4    
        100.0    
  45    100.0       99.88       99.79       99.73       99.67       99.62       99.57       99.53       99.48       99.44    
        99.39       99.35       99.31       99.27       99.23       99.19       99.16       99.12       99.10       99.07    
        99.06       99.04       99.04       99.04       99.05       99.06       99.09       99.12       99.16       99.20    
        99.25       99.31       99.37       99.44       99.51       99.58       99.66       99.73       99.81       99.89    
        99.98       100.1       100.1       100.2       100.3       100.4       100.4       100.5       100.6       100.7    
        100.7       100.8       100.9       100.9       101.0       101.0       101.1       101.1       101.2       101.2    
        101.3       101.3       101.3       101.4       101.4       101.4       101.5       101.5       101.5       101.5    
        101.5       101.5       101.6       101.6       101.6       101.6       101.6       101.6       101.6       101.6    
        101.6       101.5       101.5       101.5       101.5       101.5       101.4       101.4       101.4       101.3    
        101.3       101.2       101.2       101.1       101.1       101.0       100.9       100.7       100.6       100.4    
        100.0    
  46    100.0       99.90       99.83       99.77       99.72       99.68       99.64       99.60       99.56       99.52    
        99.48       99.45       99.41       99.37       99.34       99.31       99.28       99.25       99.23       99.21    
        99.20       99.19       99.19       99.19       99.20       99.22       99.24       99.27       99.31       99.35    
        99.40       99.45       99.51       99.57       99.63       99.70       99.77       99.85       99.92      100.00    
        100.1       100.1       100.2       100.3       100.4       100.4       100.5       100.6       100.7       100.7    
        100.8       100.8       100.9       101.0       101.0       101.1       101.1       101.2       101.2       101.3    
        101.3       101.3       101.4       101.4       101.4       101.5       101.5       101.5       101.5       101.5    
        101.6       101.6       101.6       101.6       101.6       101.6       101.6       101.6       101.6       101.6    
        101.6       101.6       101.5       101.5       101.5       101.5       101.4       101.4       101.4       101.3    
        101.3       101.2       101.2       101.1       101.1       101.0       100.9       100.8       100.6       100.4    
        100.0    
  47    100.0       99.92       99.86       99.81       99.77       99.74       99.70       99.67       99.64       99.60    
        99.57       99.54       99.51       99.48       99.45       99.42       99.40       99.38       99.36       99.34    
        99.33       99.33       99.33       99.34       99.35       99.36       99.39       99.41       99.45       99.49    
        99.53       99.58       99.64       99.69       99.75       99.82       99.89       99.95       100.0       100.1    
        100.2       100.2       100.3       100.4       100.4       100.5       100.6       100.7       100.7       100.8    
        100.8       100.9       101.0       101.0       101.1       101.1       101.2       101.2       101.2       101.3    
        101.3       101.4       101.4       101.4       101.5       101.5       101.5       101.5       101.5       101.6    
        101.6       101.6       101.6       101.6       101.6       101.6       101.6       101.6       101.6       101.6    
        101.6       101.6       101.5       101.5       101.5       101.5       101.5       101.4       101.4       101.3    
        101.3       101.3       101.2       101.1       101.1       101.0       100.9       100.8       100.6       100.4    
        100.0    
  48    100.0       99.94       99.89       99.85       99.82       99.79       99.76       99.74       99.71       99.68    
        99.65       99.63       99.60       99.58       99.55       99.53       99.51       99.49       99.48       99.47    
        99.46       99.46       99.46       99.47       99.48       99.50       99.52       99.55       99.58       99.62    
        99.66       99.71       99.76       99.81       99.87       99.93       99.99       100.1       100.1       100.2    
        100.3       100.3       100.4       100.5       100.5       100.6       100.7       100.7       100.8       100.8    
        100.9       100.9       101.0       101.1       101.1       101.2       101.2       101.2       101.3       101.3    
        101.4       101.4       101.4       101.5       101.5       101.5       101.5       101.5       101.6       101.6    
        101.6       101.6       101.6       101.6       101.6       101.6       101.6       101.6       101.6       101.6    
        101.6       101.6       101.6       101.5       101.5       101.5       101.5       101.4       101.4       101.4    
        101.3       101.3       101.2       101.1       101.1       101.0       100.9       100.8       100.6       100.4    
        100.0    
  49    100.0       99.95       99.92       99.89       99.87       99.85       99.82       99.80       99.78       99.76    
        99.73       99.71       99.69       99.67       99.65       99.63       99.62       99.61       99.60       99.59    
        99.59       99.59       99.59       99.60       99.61       99.63       99.65       99.68       99.71       99.75    
        99.79       99.83       99.88       99.93       99.98       100.0       100.1       100.2       100.2       100.3    
        100.3       100.4       100.5       100.5       100.6       100.7       100.7       100.8       100.8       100.9    
        100.9       101.0       101.0       101.1       101.1       101.2       101.2       101.3       101.3       101.4    
        101.4       101.4       101.5       101.5       101.5       101.5       101.5       101.6       101.6       101.6    
        101.6       101.6       101.6       101.6       101.6       101.6       101.6       101.6       101.6       101.6    
        101.6       101.6       101.6       101.5       101.5       101.5       101.5       101.4       101.4       101.4    
        101.3       101.3       101.2       101.1       101.1       101.0       100.9       100.8       100.6       100.4    
        100.0    
  50    100.0       99.97       99.95       99.93       99.92       99.90       99.88       99.87       99.85       99.83    
        99.81       99.80       99.78       99.76       99.75       99.73       99.72       99.71       99.71       99.70    
        99.70       99.70       99.71       99.72       99.73       99.75       99.77       99.80       99.83       99.86    
        99.90       99.94       99.99       100.0       100.1       100.1       100.2       100.3       100.3       100.4    
        100.4       100.5       100.5       100.6       100.7       100.7       100.8       100.8       100.9       100.9    
        101.0       101.0       101.1       101.1       101.2       101.2       101.3       101.3       101.3       101.4    
        101.4       101.4       101.5       101.5       101.5       101.6       101.6       101.6       101.6       101.6    
        101.6       101.6       101.6       101.6       101.6       101.6       101.6       101.6       101.6       101.6    
        101.6       101.6       101.6       101.6       101.5       101.5       101.5       101.4       101.4       101.4    
        101.3       101.3       101.2       101.2       101.1       101.0       100.9       100.8       100.6       100.4    
        100.0    
  51    100.0       99.99       99.98       99.97       99.96       99.95       99.94       99.93       99.91       99.90    
        99.89       99.87       99.86       99.85       99.84       99.83       99.82       99.81       99.81       99.81    
        99.81       99.81       99.82       99.83       99.85       99.87       99.89       99.92       99.94       99.98    
        100.0       100.1       100.1       100.1       100.2       100.2       100.3       100.3       100.4       100.5    
        100.5       100.6       100.6       100.7       100.7       100.8       100.8       100.9       100.9       101.0    
        101.0       101.1       101.1       101.2       101.2       101.3       101.3       101.3       101.4       101.4    
        101.4       101.5       101.5       101.5       101.6       101.6       101.6       101.6       101.6       101.6    
        101.6       101.7       101.7       101.7       101.7       101.7       101.7       101.7       101.6       101.6    
        101.6       101.6       101.6       101.6       101.5       101.5       101.5       101.4       101.4       101.4    
        101.3       101.3       101.2       101.2       101.1       101.0       100.9       100.8       100.6       100.4    
        100.0    
  52    100.0       100.0       100.0       100.0       100.0       100.0       99.99       99.99       99.98       99.97    
        99.96       99.95       99.94       99.93       99.92       99.92       99.91       99.91       99.91       99.91    
        99.91       99.92       99.93       99.94       99.96       99.98      100.00       100.0       100.1       100.1    
        100.1       100.2       100.2       100.2       100.3       100.3       100.4       100.4       100.5       100.5    
        100.6       100.6       100.7       100.7       100.8       100.8       100.9       100.9       101.0       101.0    
        101.1       101.1       101.2       101.2       101.3       101.3       101.3       101.4       101.4       101.4    
        101.5       101.5       101.5       101.6       101.6       101.6       101.6       101.6       101.6       101.7    
        101.7       101.7       101.7       101.7       101.7       101.7       101.7       101.7       101.7       101.6    
        101.6       101.6       101.6       101.6       101.5       101.5       101.5       101.5       101.4       101.4    
        101.3       101.3       101.2       101.2       101.1       101.0       100.9       100.8       100.6       100.4    
        100.0    
  53    100.0       100.0       100.0       100.0       100.0       100.0       100.0       100.0       100.0       100.0    
        100.0       100.0       100.0       100.0       100.0       100.0       100.0       100.0       100.0       100.0    
        100.0       100.0       100.0       100.0       100.1       100.1       100.1       100.1       100.2       100.2    
        100.2       100.3       100.3       100.3       100.4       100.4       100.5       100.5       100.6       100.6    
        100.7       100.7       100.8       100.8       100.9       100.9       101.0       101.0       101.0       101.1    
        101.1       101.2       101.2       101.3       101.3       101.3       101.4       101.4       101.4       101.5    
        101.5       101.5       101.6       101.6       101.6       101.6       101.6       101.6       101.7       101.7    
        101.7       101.7       101.7       101.7       101.7       101.7       101.7       101.7       101.7       101.7    
        101.6       101.6       101.6       101.6       101.6       101.5       101.5       101.5       101.4       101.4    
        101.3       101.3       101.2       101.2       101.1       101.0       100.9       100.8       100.6       100.4    
        100.0    
  54    100.0       100.0       100.1       100.1       100.1       100.1       100.1       100.1       100.1       100.1    
        100.1       100.1       100.1       100.1       100.1       100.1       100.1       100.1       100.1       100.1    
[...]
        101.3       101.3       101.3       101.3       101.3       101.3       101.3       101.3       101.3       101.3    
        101.3       101.3       101.3       101.3       101.3       101.3       101.3       101.3       101.3       101.3    
        101.3       101.3       101.3       101.2       101.2       101.2       101.2       101.2       101.2       101.2    
        101.2       101.1       101.1       101.1       101.1       101.1       101.0       101.0       101.0       101.0    
        100.9       100.9       100.9       100.9       100.8       100.8       100.8       100.8       100.8       100.8    
        100.8    
  89    100.6       100.6       100.6       100.6       100.6       100.6       100.6       100.6       100.7       100.7    
        100.7       100.7       100.7       100.8       100.8       100.8       100.8       100.8       100.9       100.9    
        100.9       100.9       100.9       100.9       101.0       101.0       101.0       101.0       101.0       101.0    
        101.0       101.1       101.1       101.1       101.1       101.1       101.1       101.1       101.1       101.1    
        101.2       101.2       101.2       101.2       101.2       101.2       101.2       101.2       101.2       101.2    
        101.2       101.2       101.2       101.3       101.3       101.3       101.3       101.3       101.3       101.3    
        101.3       101.3       101.3       101.3       101.3       101.3       101.3       101.3       101.3       101.3    
        101.2       101.2       101.2       101.2       101.2       101.2       101.2       101.2       101.2       101.1    
        101.1       101.1       101.1       101.1       101.1       101.0       101.0       101.0       101.0       100.9    
        100.9       100.9       100.9       100.8       100.8       100.8       100.8       100.8       100.8       100.8    
        100.7    
  90    100.5       100.6       100.6       100.6       100.6       100.6       100.6       100.6       100.6       100.7    
        100.7       100.7       100.7       100.7       100.8       100.8       100.8       100.8       100.8       100.9    
        100.9       100.9       100.9       100.9       100.9       101.0       101.0       101.0       101.0       101.0    
        101.0       101.0       101.0       101.1       101.1       101.1       101.1       101.1       101.1       101.1    
        101.1       101.1       101.2       101.2       101.2       101.2       101.2       101.2       101.2       101.2    
        101.2       101.2       101.2       101.2       101.2       101.2       101.2       101.2       101.2       101.2    
        101.2       101.2       101.2       101.2       101.2       101.2       101.2       101.2       101.2       101.2    
        101.2       101.2       101.2       101.2       101.2       101.2       101.2       101.1       101.1       101.1    
        101.1       101.1       101.1       101.0       101.0       101.0       101.0       101.0       100.9       100.9    
        100.9       100.9       100.8       100.8       100.8       100.8       100.8       100.8       100.7       100.7    
        100.7    
  91    100.5       100.5       100.6       100.6       100.6       100.6       100.6       100.6       100.6       100.7    
        100.7       100.7       100.7       100.7       100.8       100.8       100.8       100.8       100.8       100.8    
        100.9       100.9       100.9       100.9       100.9       100.9       100.9       101.0       101.0       101.0    
        101.0       101.0       101.0       101.0       101.0       101.1       101.1       101.1       101.1       101.1    
        101.1       101.1       101.1       101.1       101.1       101.1       101.2       101.2       101.2       101.2    
        101.2       101.2       101.2       101.2       101.2       101.2       101.2       101.2       101.2       101.2    
        101.2       101.2       101.2       101.2       101.2       101.2       101.2       101.2       101.2       101.2    
        101.2       101.2       101.2       101.2       101.1       101.1       101.1       101.1       101.1       101.1    
        101.1       101.1       101.0       101.0       101.0       101.0       101.0       100.9       100.9       100.9    
        100.9       100.9       100.8       100.8       100.8       100.8       100.8       100.7       100.7       100.7    
        100.7    
  92    100.5       100.5       100.5       100.6       100.6       100.6       100.6       100.6       100.6       100.6    
        100.7       100.7       100.7       100.7       100.7       100.8       100.8       100.8       100.8       100.8    
        100.8       100.9       100.9       100.9       100.9       100.9       100.9       100.9       101.0       101.0    
        101.0       101.0       101.0       101.0       101.0       101.0       101.0       101.1       101.1       101.1    
        101.1       101.1       101.1       101.1       101.1       101.1       101.1       101.1       101.1       101.1    
        101.2       101.2       101.2       101.2       101.2       101.2       101.2       101.2       101.2       101.2    
        101.2       101.2       101.2       101.2       101.2       101.2       101.2       101.2       101.2       101.2    
        101.1       101.1       101.1       101.1       101.1       101.1       101.1       101.1       101.1       101.1    
        101.0       101.0       101.0       101.0       101.0       101.0       100.9       100.9       100.9       100.9    
        100.9       100.8       100.8       100.8       100.8       100.7       100.7       100.7       100.7       100.7    
        100.7    
  93    100.5       100.5       100.5       100.5       100.6       100.6       100.6       100.6       100.6       100.6    
        100.6       100.7       100.7       100.7       100.7       100.7       100.8       100.8       100.8       100.8    
        100.8       100.8       100.8       100.9       100.9       100.9       100.9       100.9       100.9       100.9    
        101.0       101.0       101.0       101.0       101.0       101.0       101.0       101.0       101.0       101.0    
        101.1       101.1       101.1       101.1       101.1       101.1       101.1       101.1       101.1       101.1    
        101.1       101.1       101.1       101.1       101.1       101.1       101.1       101.1       101.1       101.1    
        101.1       101.1       101.1       101.1       101.1       101.1       101.1       101.1       101.1       101.1    
        101.1       101.1       101.1       101.1       101.1       101.1       101.1       101.1       101.0       101.0    
        101.0       101.0       101.0       101.0       100.9       100.9       100.9       100.9       100.9       100.8    
        100.8       100.8       100.8       100.8       100.7       100.7       100.7       100.7       100.7       100.7    
        100.7    
  94    100.5       100.5       100.5       100.5       100.5       100.6       100.6       100.6       100.6       100.6    
        100.6       100.7       100.7       100.7       100.7       100.7       100.7       100.8       100.8       100.8    
        100.8       100.8       100.8       100.8       100.9       100.9       100.9       100.9       100.9       100.9    
        100.9       100.9       101.0       101.0       101.0       101.0       101.0       101.0       101.0       101.0    
        101.0       101.0       101.0       101.1       101.1       101.1       101.1       101.1       101.1       101.1    
        101.1       101.1       101.1       101.1       101.1       101.1       101.1       101.1       101.1       101.1    
        101.1       101.1       101.1       101.1       101.1       101.1       101.1       101.1       101.1       101.1    
        101.1       101.1       101.1       101.1       101.1       101.0       101.0       101.0       101.0       101.0    
        101.0       101.0       101.0       100.9       100.9       100.9       100.9       100.9       100.8       100.8    
        100.8       100.8       100.8       100.7       100.7       100.7       100.7       100.7       100.7       100.7    
        100.7    
  95    100.5       100.5       100.5       100.5       100.5       100.5       100.6       100.6       100.6       100.6    
        100.6       100.6       100.7       100.7       100.7       100.7       100.7       100.7       100.8       100.8    
        100.8       100.8       100.8       100.8       100.8       100.9       100.9       100.9       100.9       100.9    
        100.9       100.9       100.9       100.9       101.0       101.0       101.0       101.0       101.0       101.0    
        101.0       101.0       101.0       101.0       101.0       101.0       101.0       101.1       101.1       101.1    
        101.1       101.1       101.1       101.1       101.1       101.1       101.1       101.1       101.1       101.1    
        101.1       101.1       101.1       101.1       101.1       101.1       101.1       101.1       101.1       101.1    
        101.1       101.1       101.0       101.0       101.0       101.0       101.0       101.0       101.0       101.0    
        101.0       100.9       100.9       100.9       100.9       100.9       100.9       100.8       100.8       100.8    
        100.8       100.8       100.7       100.7       100.7       100.7       100.7       100.7       100.7       100.7    
        100.6    
  96    100.5       100.5       100.5       100.5       100.5       100.5       100.5       100.6       100.6       100.6    
        100.6       100.6       100.6       100.7       100.7       100.7       100.7       100.7       100.7       100.8    
        100.8       100.8       100.8       100.8       100.8       100.8       100.8       100.9       100.9       100.9    
        100.9       100.9       100.9       100.9       100.9       100.9       100.9       101.0       101.0       101.0    
        101.0       101.0       101.0       101.0       101.0       101.0       101.0       101.0       101.0       101.0    
        101.0       101.0       101.0       101.1       101.1       101.1       101.1       101.1       101.1       101.1    
        101.1       101.1       101.1       101.1       101.1       101.1       101.1       101.0       101.0       101.0    
        101.0       101.0       101.0       101.0       101.0       101.0       101.0       101.0       101.0       100.9    
        100.9       100.9       100.9       100.9       100.9       100.9       100.8       100.8       100.8       100.8    
        100.8       100.7       100.7       100.7       100.7       100.7       100.7       100.7       100.6       100.6    
        100.6    
  97    100.5       100.5       100.5       100.5       100.5       100.5       100.5       100.6       100.6       100.6    
        100.6       100.6       100.6       100.6       100.7       100.7       100.7       100.7       100.7       100.7    
        100.7       100.8       100.8       100.8       100.8       100.8       100.8       100.8       100.8       100.9    
        100.9       100.9       100.9       100.9       100.9       100.9       100.9       100.9       100.9       101.0    
        101.0       101.0       101.0       101.0       101.0       101.0       101.0       101.0       101.0       101.0    
        101.0       101.0       101.0       101.0       101.0       101.0       101.0       101.0       101.0       101.0    
        101.0       101.0       101.0       101.0       101.0       101.0       101.0       101.0       101.0       101.0    
        101.0       101.0       101.0       101.0       101.0       101.0       101.0       100.9       100.9       100.9    
        100.9       100.9       100.9       100.9       100.9       100.8       100.8       100.8       100.8       100.8    
        100.8       100.7       100.7       100.7       100.7       100.7       100.7       100.6       100.6       100.6    
        100.6    
  98    100.5       100.5       100.5       100.5       100.5       100.5       100.5       100.5       100.6       100.6    
        100.6       100.6       100.6       100.6       100.7       100.7       100.7       100.7       100.7       100.7    
        100.7       100.7       100.8       100.8       100.8       100.8       100.8       100.8       100.8       100.8    
        100.9       100.9       100.9       100.9       100.9       100.9       100.9       100.9       100.9       100.9    
        100.9       100.9       101.0       101.0       101.0       101.0       101.0       101.0       101.0       101.0    
        101.0       101.0       101.0       101.0       101.0       101.0       101.0       101.0       101.0       101.0    
        101.0       101.0       101.0       101.0       101.0       101.0       101.0       101.0       101.0       101.0    
        101.0       101.0       101.0       101.0       101.0       100.9       100.9       100.9       100.9       100.9    
        100.9       100.9       100.9       100.9       100.8       100.8       100.8       100.8       100.8       100.8    
        100.7       100.7       100.7       100.7       100.7       100.7       100.6       100.6       100.6       100.6    
        100.6    
  99    100.5       100.5       100.5       100.5       100.5       100.5       100.5       100.5       100.6       100.6    
        100.6       100.6       100.6       100.6       100.6       100.7       100.7       100.7       100.7       100.7    
        100.7       100.7       100.8       100.8       100.8       100.8       100.8       100.8       100.8       100.8    
        100.8       100.9       100.9       100.9       100.9       100.9       100.9       100.9       100.9       100.9    
        100.9       100.9       100.9       100.9       101.0       101.0       101.0       101.0       101.0       101.0    
        101.0       101.0       101.0       101.0       101.0       101.0       101.0       101.0       101.0       101.0    
        101.0       101.0       101.0       101.0       101.0       101.0       101.0       101.0       101.0       101.0    
        101.0       101.0       101.0       100.9       100.9       100.9       100.9       100.9       100.9       100.9    
        100.9       100.9       100.9       100.8       100.8       100.8       100.8       100.8       100.8       100.7    
        100.7       100.7       100.7       100.7       100.7       100.6       100.6       100.6       100.6       100.6    
        100.6    
 100    100.5       100.5       100.5       100.5       100.5       100.5       100.5       100.5       100.5       100.6    
        100.6       100.6       100.6       100.6       100.6       100.6       100.7       100.7       100.7       100.7    
        100.7       100.7       100.7       100.8       100.8       100.8       100.8       100.8       100.8       100.8    
        100.8       100.8       100.9       100.9       100.9       100.9       100.9       100.9       100.9       100.9    
        100.9       100.9       100.9       100.9       100.9       100.9       101.0       101.0       101.0       101.0    
        101.0       101.0       101.0       101.0       101.0       101.0       101.0       101.0       101.0       101.0    
        101.0       101.0       101.0       101.0       101.0       101.0       101.0       101.0       101.0       101.0    
        101.0       101.0       100.9       100.9       100.9       100.9       100.9       100.9       100.9       100.9    
        100.9       100.9       100.8       100.8       100.8       100.8       100.8       100.8       100.8       100.7    
        100.7       100.7       100.7       100.7       100.7       100.6       100.6       100.6       100.6       100.6    
        100.6    
 101    100.5       100.5       100.5       100.5       100.5       100.5       100.5       100.5       100.5       100.6    
        100.6       100.6       100.6       100.6       100.6       100.6       100.7       100.7       100.7       100.7    
        100.7       100.7       100.7       100.8       100.8       100.8       100.8       100.8       100.8       100.8    
        100.8       100.8       100.8       100.9       100.9       100.9       100.9       100.9       100.9       100.9    
        100.9       100.9       100.9       100.9       100.9       100.9       100.9       101.0       101.0       101.0    
        101.0       101.0       101.0       101.0       101.0       101.0       101.0       101.0       101.0       101.0    
        101.0       101.0       101.0       101.0       101.0       101.0       101.0       101.0       101.0       101.0    
        101.0       100.9       100.9       100.9       100.9       100.9       100.9       100.9       100.9       100.9    
        100.9       100.9       100.8       100.8       100.8       100.8       100.8       100.8       100.7       100.7    
        100.7       100.7       100.7       100.7       100.6       100.6       100.6       100.6       100.6       100.6    
        100.6    

 HEAD WILL BE SAVED ON UNIT 1016 AT END OF TIME STEP    1, STRESS PERIOD    1


  VOLUME BUDGET FOR ENTIRE MODEL AT END OF TIME STEP    1, STRESS PERIOD   1
  ---------------------------------------------------------------------------------------------------

     CUMULATIVE VOLUME      L**3       RATES FOR THIS TIME STEP      L**3/T          PACKAGE NAME    
     ------------------                 ------------------------                     ----------------

           IN:                                      IN:
           ---                                      ---
              STO-SS =          36.3777                STO-SS =          36.3777     STORAGE                          
              STO-SY =           0.0000                STO-SY =           0.0000     STORAGE                          
                 WEL =           0.0000                   WEL =           0.0000     WEL_0                            
                RCHA =        1529.6052                  RCHA =        1529.6052     RCH                              
                 CHD =         255.4731                   CHD =         255.4731     CHD_0                            

            TOTAL IN =        1821.4560              TOTAL IN =        1821.4560

          OUT:                                     OUT:
          ----                                     ----
              STO-SS =          58.6380                STO-SS =          58.6380     STORAGE                          
              STO-SY =           0.0000                STO-SY =           0.0000     STORAGE                          
                 WEL =        1098.3602                   WEL =        1098.3602     WEL_0                            
                RCHA =           0.0000                  RCHA =           0.0000     RCH                              
                 CHD =         663.6351                   CHD =         663.6351     CHD_0                            

           TOTAL OUT =        1820.6334             TOTAL OUT =        1820.6334

            IN - OUT =           0.8226              IN - OUT =           0.8226

 PERCENT DISCREPANCY =           0.05     PERCENT DISCREPANCY =           0.05




         TIME SUMMARY AT END OF TIME STEP    1 IN STRESS PERIOD    1
                    SECONDS     MINUTES      HOURS       DAYS        YEARS
                    -----------------------------------------------------------
   TIME STEP LENGTH  86400.      1440.0      24.000      1.0000     2.73785E-03
 STRESS PERIOD TIME  86400.      1440.0      24.000      1.0000     2.73785E-03
         TOTAL TIME  86400.      1440.0      24.000      1.0000     2.73785E-03


end timestep

