                                   MODFLOW 6
                U.S. GEOLOGICAL SURVEY MODULAR HYDROLOGIC MODEL
                          GROUNDWATER FLOW MODEL (GWF)
                        VERSION 6.4.1 Release 12/09/2022

   MODFLOW 6 compiled Dec 09 2022 18:18:37 with Intel(R) Fortran Intel(R) 64
   Compiler Classic for applications running on Intel(R) 64, Version 2021.7.0
                             Build 20220726_000000

This software has been approved for release by the U.S. Geological 
Survey (USGS). Although the software has been subjected to rigorous 
review, the USGS reserves the right to update the software as needed 
pursuant to further analysis and review. No warranty, expressed or 
implied, is made by the USGS or the U.S. Government as to the 
functionality of the software and related material nor shall the 
fact of release constitute any such warranty. Furthermore, the 
software is released on condition that neither the USGS nor the U.S. 
Government shall be held liable for any damages resulting from its 
authorized or unauthorized use. Also refer to the USGS Water 
Resources Software User Rights Notice for complete use, copyright, 
and distribution information.


As a work of the United States Government, this USGS product is 
in the public domain within the United States. You can copy, 
modify, distribute, and perform the work, even for commercial 
purposes, all without asking permission. Additionally, USGS 
waives copyright and related rights in the work worldwide 
through CC0 1.0 Universal Public Domain Dedication 
(https://creativecommons.org/publicdomain/zero/1.0/).

The following GNU Lesser General Public License (LGPL) libraries
are used in this USGS product:

    SPARSKIT version 2.0
      ilut, luson, and qsplit 
      (https://www-users.cse.umn.edu/~saad/software/SPARSKIT/)

    RCM - Reverse Cuthill McKee Ordering
      (https://people.math.sc.edu/Burkardt/f_src/rcm/rcm.html)

    BLAS - Basic Linear Algebra Subprograms Level 1
      (https://people.math.sc.edu/Burkardt/f_src/blas1_d/blas1_d.html)

    SPARSEKIT - Sparse Matrix Utility Package
      amux, dperm, dvperm, rperm, and cperm
      (https://people.sc.fsu.edu/~jburkardt/f77_src/sparsekit/sparsekit.html)

The following BSD-3 License libraries are used in this USGS product:

    Modern Fortran DAG Library
      Copyright (c) 2018, Jacob Williams
      All rights reserved.
      (https://github.com/jacobwilliams/daglib)

MODFLOW 6 compiler options: /Isrc\libmf6core.a.p /Isrc /I..\src
/Isrc\libmf6_external.a.p /MTd /nologo /warn:general /warn:truncated_source
/stand:f08 /Zi /traceback /O2 /fpe:0 /heap-arrays:0 /traceback /fpp
/Qdiag-disable:7416 /Qdiag-disable:7025 /Qdiag-disable:5268
/Fdsrc\libmf6core.a.p\Utilities_compilerversion.F90.pdb
/module:src\libmf6core.a.p
/Fosrc/libmf6core.a.p/Utilities_compilerversion.F90.obj /c

System command used to initiate simulation:
"C:\Users\ksil8584\OneDrive - The University of Sydney (Staff)\Documents\Modflow\mf6.4.1\bin\mf6.exe"

MODFLOW was compiled using uniform precision.

Real Variables
  KIND: 8
  TINY (smallest non-zero value):    2.225074-308
  HUGE (largest value):    1.797693+308
  PRECISION: 15
  SIZE IN BITS: 64

Integer Variables
  KIND: 4
  HUGE (largest value): 2147483647
  SIZE IN BITS: 32

Long Integer Variables
  KIND: 8
  HUGE (largest value): 9223372036854775807
  SIZE IN BITS: 64

Logical Variables
  KIND: 4
  SIZE IN BITS: 32
 

 OPENED FloPy_ModelS_T1b.dis
 FILE TYPE:DIS6                   UNIT 1005   STATUS:OLD                 
 FORMAT:FORMATTED              ACCESS:SEQUENTIAL          
 ACTION:READ                


 OPENED FloPy_ModelS_T1b.ic
 FILE TYPE:IC6                    UNIT 1006   STATUS:OLD                 
 FORMAT:FORMATTED              ACCESS:SEQUENTIAL          
 ACTION:READ                


 OPENED FloPy_ModelS_T1b.npf
 FILE TYPE:NPF6                   UNIT 1007   STATUS:OLD                 
 FORMAT:FORMATTED              ACCESS:SEQUENTIAL          
 ACTION:READ                


 OPENED FloPy_ModelS_T1b.sto
 FILE TYPE:STO6                   UNIT 1008   STATUS:OLD                 
 FORMAT:FORMATTED              ACCESS:SEQUENTIAL          
 ACTION:READ                


 OPENED FloPy_ModelS_T1b.chd
 FILE TYPE:CHD6                   UNIT 1009   STATUS:OLD                 
 FORMAT:FORMATTED              ACCESS:SEQUENTIAL          
 ACTION:READ                


 OPENED FloPy_ModelS_T1b.oc
 FILE TYPE:OC6                    UNIT 1010   STATUS:OLD                 
 FORMAT:FORMATTED              ACCESS:SEQUENTIAL          
 ACTION:READ                


 OPENED FloPy_ModelS_T1b.wel
 FILE TYPE:WEL6                   UNIT 1011   STATUS:OLD                 
 FORMAT:FORMATTED              ACCESS:SEQUENTIAL          
 ACTION:READ                


 OPENED FloPy_ModelS_T1b.rcha
 FILE TYPE:RCH6                   UNIT 1012   STATUS:OLD                 
 FORMAT:FORMATTED              ACCESS:SEQUENTIAL          
 ACTION:READ                

 NAMEFILE OPTIONS:
    FLOWS WILL BE SAVED TO BUDGET FILE SPECIFIED IN OUTPUT CONTROL
    NEWTON-RAPHSON method enabled for the model.
    NEWTON-RAPHSON UNDER-RELAXATION based on the bottom elevation of the model will be applied to the model.

 DIS -- STRUCTURED GRID DISCRETIZATION PACKAGE, VERSION 2 : 3/27/2014 - INPUT READ FROM UNIT 1005

 Loading input for FLOPY_MODELS_T1B/DIS
 # File generated by Flopy version 3.3.6 on 06/23/2023 at 17:43:33.
   NLAY = 10
   NROW = 101
   NCOL = 101
   DELR = 4.000000000000000
   DELC = 4.000000000000000
   TOP = .000000000000000
   BOTM = variable 3D double precision array ranging from -50.00000000000000 to -5.000000000000000
 Loading input complete...


 NPF -- NODE PROPERTY FLOW PACKAGE, VERSION 1, 3/30/2015 INPUT READ FROM UNIT 1007

 Loading input for FLOPY_MODELS_T1B/NPF
 # File generated by Flopy version 3.3.6 on 06/23/2023 at 17:43:34.
   ICELLTYPE = 1
   K = 1.000000000000000
 Loading input complete...

 Setting Discretization Options
 End Setting Discretization Options

 Setting Discretization Dimensions
    NLAY = 10
    NROW = 101
    NCOL = 101
 End Setting Discretization Dimensions

 Setting Discretization Griddata
    DELR set from input file
    DELC set from input file
    TOP set from input file
    BOTM set from input file
 End Setting Discretization Griddata

 Setting NPF Options
 End Setting NPF Options

 Setting NPF Griddata
    ICELLTYPE set from input file
    K set from input file
    K33 not provided.  Setting K33 = K.
    K22 not provided.  Setting K22 = K.
 End Setting NPF Griddata


 WEL   -- WEL PACKAGE, VERSION 8, 2/22/2014 INPUT READ FROM UNIT 1011
 # File generated by Flopy version 3.3.6 on 06/23/2023 at 17:43:34.

 PROCESSING WEL OPTIONS
 END OF WEL OPTIONS

 PROCESSING WEL DIMENSIONS
    MAXBOUND =       1
 END OF WEL DIMENSIONS

 RCH   -- RCH PACKAGE, VERSION 8, 2/22/2014 INPUT READ FROM UNIT 1012
 # File generated by Flopy version 3.3.6 on 06/23/2023 at 17:43:34.

 PROCESSING RCH OPTIONS
    RECHARGE INPUT WILL BE READ AS ARRAY(S).
 END OF RCHA OPTIONS

 CHD   -- CHD PACKAGE, VERSION 8, 2/22/2014 INPUT READ FROM UNIT 1009
 # File generated by Flopy version 3.3.6 on 06/23/2023 at 17:43:34.

 PROCESSING CHD OPTIONS
 END OF CHD OPTIONS

 PROCESSING CHD DIMENSIONS
    MAXBOUND =     400
 END OF CHD DIMENSIONS

 IC -- INITIAL CONDITIONS PACKAGE, VERSION 8, 3/28/2015 INPUT READ FROM UNIT 1006
 # File generated by Flopy version 3.3.6 on 06/23/2023 at 17:43:33.
 PROCESSING GRIDDATA
 END PROCESSING GRIDDATA

 STO -- STORAGE PACKAGE, VERSION 1, 5/19/2014 INPUT READ FROM UNIT 1008


 # File generated by Flopy version 3.3.6 on 06/23/2023 at 17:43:34.
 PROCESSING STORAGE OPTIONS
 END OF STORAGE OPTIONS
 PROCESSING GRIDDATA

                 ICONVERT = 1

         SPECIFIC STORAGE =  0.1000000E-04

           SPECIFIC YIELD =  0.1500000    
 END PROCESSING GRIDDATA
    BINARY GRID INFORMATION WILL BE WRITTEN TO:
      UNIT NUMBER: 1014
      FILE NAME: C:\Users\ksil8584\OneDrive - The University of Sydney (Staff)\Documents\Modflow\FloPy models\FP_ModelS_1b\output_q_950-1050_r_005-01\FloPy_ModelS_T1b.dis.grb

 OPENED C:\Users\ksil8584\OneDrive - The University of Sydney (Staff)\Documents\Modflow\FloPy models\FP_ModelS_1b\output_q_950-1050_r_005-01\FloPy_ModelS_T1b.dis.grb
 FILE TYPE:DATA(BINARY)   UNIT 1014   STATUS:REPLACE             
 FORMAT:UNFORMATTED            ACCESS:STREAM              
 ACTION:READWRITE           

      THE LAST TIME STEP WILL BE PRINTED
      THE LAST TIME STEP WILL BE PRINTED
 # File generated by Flopy version 3.3.6 on 06/23/2023 at 17:43:34.

 PROCESSING OC OPTIONS

    BUDGET INFORMATION WILL BE WRITTEN TO:
      UNIT NUMBER: 1015
      FILE NAME: FloPy_ModelS_T1b.cbb

 OPENED FloPy_ModelS_T1b.cbb
 FILE TYPE:DATA(BINARY)   UNIT 1015   STATUS:REPLACE             
 FORMAT:UNFORMATTED            ACCESS:STREAM              
 ACTION:READWRITE           

    HEAD INFORMATION WILL BE WRITTEN TO:
      UNIT NUMBER: 1016
      FILE NAME: FloPy_ModelS_T1b.hds

 OPENED FloPy_ModelS_T1b.hds
 FILE TYPE:DATA(BINARY)   UNIT 1016   STATUS:REPLACE             
 FORMAT:UNFORMATTED            ACCESS:STREAM              
 ACTION:READWRITE           

 END OF OC OPTIONS

start timestep kper="1" kstp="1" mode="normal"


 BEGIN READING OUTPUT CONTROL FOR STRESS PERIOD 1
      ALL TIME STEPS WILL BE SAVED
      ALL TIME STEPS WILL BE SAVED
      THE LAST TIME STEP WILL BE PRINTED

 END READING OUTPUT CONTROL FOR STRESS PERIOD 1


 STRESS PERIOD 1 IS TRANSIENT


                 RECHARGE =  0.9754140E-02
 UBDSV1 SAVING           STO-SS ON UNIT   1015 AT TIME STEP      1, STRESS PERIOD      1
 UBDSV1 SAVING           STO-SY ON UNIT   1015 AT TIME STEP      1, STRESS PERIOD      1
 UBDSV1 SAVING     FLOW-JA-FACE ON UNIT   1015 AT TIME STEP      1, STRESS PERIOD      1
 UBDSV06 SAVING              WEL IN MODEL FLOPY_MODELS_T1B PACKAGE FLOPY_MODELS_T1BCONNECTED TO MODEL FLOPY_MODELS_T1B PACKAGE WEL_0            ON UNIT   1015 AT TIME STEP      1, STRESS PERIOD      1
 UBDSV06 SAVING             RCHA IN MODEL FLOPY_MODELS_T1B PACKAGE FLOPY_MODELS_T1BCONNECTED TO MODEL FLOPY_MODELS_T1B PACKAGE RCH              ON UNIT   1015 AT TIME STEP      1, STRESS PERIOD      1
 UBDSV06 SAVING              CHD IN MODEL FLOPY_MODELS_T1B PACKAGE FLOPY_MODELS_T1BCONNECTED TO MODEL FLOPY_MODELS_T1B PACKAGE CHD_0            ON UNIT   1015 AT TIME STEP      1, STRESS PERIOD      1
1
  HEAD IN LAYER   1 AT END OF TIME STEP   1 IN STRESS PERIOD    1
  ---------------------------------------------------------------------------

            1           2           3           4           5           6           7           8           9          10
           11          12          13          14          15          16          17          18          19          20
           21          22          23          24          25          26          27          28          29          30
           31          32          33          34          35          36          37          38          39          40
           41          42          43          44          45          46          47          48          49          50
           51          52          53          54          55          56          57          58          59          60
           61          62          63          64          65          66          67          68          69          70
           71          72          73          74          75          76          77          78          79          80
           81          82          83          84          85          86          87          88          89          90
           91          92          93          94          95          96          97          98          99         100
          101
 ........................................................................................................................
   1    100.0       100.0       100.0       100.0       100.0       100.0       100.0       100.0       100.0       100.0    
        100.0       100.0       100.0       100.0       100.0       100.0       100.0       100.0       100.0       100.0    
        100.0       100.0       100.0       100.0       100.0       100.0       100.0       100.0       100.0       100.0    
        100.0       100.0       100.0       100.0       100.0       100.0       100.0       100.0       100.0       100.0    
        100.0       100.0       100.0       100.0       100.0       100.0       100.0       100.0       100.0       100.0    
        100.0       100.0       100.0       100.0       100.0       100.0       100.0       100.0       100.0       100.0    
        100.0       100.0       100.0       100.0       100.0       100.0       100.0       100.0       100.0       100.0    
        100.0       100.0       100.0       100.0       100.0       100.0       100.0       100.0       100.0       100.0    
        100.0       100.0       100.0       100.0       100.0       100.0       100.0       100.0       100.0       100.0    
        100.0       100.0       100.0       100.0       100.0       100.0       100.0       100.0       100.0       100.0    
        100.0    
   2    100.0       99.92       99.88       99.86       99.84       99.82       99.80       99.79       99.77       99.76    
        99.74       99.73       99.71       99.70       99.69       99.67       99.66       99.65       99.64       99.63    
        99.63       99.62       99.62       99.62       99.62       99.62       99.62       99.63       99.64       99.64    
        99.66       99.67       99.68       99.70       99.71       99.73       99.75       99.77       99.79       99.81    
        99.82       99.84       99.86       99.88       99.90       99.92       99.94       99.96       99.98      100.00    
        100.0       100.0       100.0       100.1       100.1       100.1       100.1       100.1       100.1       100.1    
        100.2       100.2       100.2       100.2       100.2       100.2       100.2       100.2       100.2       100.2    
        100.2       100.2       100.2       100.2       100.2       100.2       100.3       100.3       100.3       100.3    
        100.3       100.3       100.3       100.3       100.3       100.3       100.2       100.2       100.2       100.2    
        100.2       100.2       100.2       100.2       100.2       100.2       100.2       100.2       100.1       100.1    
        100.0    
   3    100.0       99.88       99.82       99.77       99.73       99.70       99.67       99.64       99.62       99.59    
        99.57       99.54       99.52       99.50       99.48       99.46       99.44       99.42       99.40       99.39    
        99.38       99.37       99.36       99.36       99.36       99.36       99.37       99.38       99.39       99.41    
        99.42       99.44       99.47       99.49       99.52       99.55       99.58       99.61       99.64       99.67    
        99.71       99.74       99.77       99.80       99.84       99.87       99.90       99.93       99.96       99.99    
        100.0       100.0       100.1       100.1       100.1       100.1       100.2       100.2       100.2       100.2    
        100.2       100.3       100.3       100.3       100.3       100.3       100.3       100.3       100.4       100.4    
        100.4       100.4       100.4       100.4       100.4       100.4       100.4       100.4       100.4       100.4    
        100.4       100.4       100.4       100.4       100.4       100.4       100.4       100.4       100.4       100.4    
        100.4       100.4       100.4       100.3       100.3       100.3       100.3       100.3       100.2       100.1    
        100.0    
   4    100.0       99.86       99.77       99.71       99.66       99.61       99.57       99.54       99.50       99.47    
        99.44       99.41       99.38       99.35       99.32       99.29       99.26       99.24       99.22       99.20    
        99.19       99.17       99.17       99.16       99.16       99.17       99.17       99.19       99.20       99.22    
        99.25       99.27       99.30       99.34       99.37       99.41       99.45       99.49       99.53       99.57    
        99.61       99.66       99.70       99.74       99.79       99.83       99.87       99.91       99.95       99.98    
        100.0       100.1       100.1       100.1       100.2       100.2       100.2       100.2       100.3       100.3    
        100.3       100.3       100.4       100.4       100.4       100.4       100.4       100.4       100.5       100.5    
        100.5       100.5       100.5       100.5       100.5       100.5       100.5       100.5       100.5       100.5    
        100.5       100.5       100.5       100.5       100.5       100.5       100.5       100.5       100.5       100.5    
        100.5       100.5       100.5       100.4       100.4       100.4       100.4       100.3       100.3       100.2    
        100.0    
   5    100.0       99.84       99.73       99.66       99.60       99.54       99.50       99.45       99.41       99.37    
        99.33       99.29       99.26       99.22       99.18       99.15       99.12       99.09       99.07       99.04    
        99.03       99.01       99.00       98.99       98.99       99.00       99.01       99.02       99.04       99.07    
        99.09       99.13       99.16       99.20       99.25       99.29       99.34       99.39       99.44       99.49    
        99.54       99.59       99.64       99.69       99.74       99.79       99.84       99.88       99.93       99.97    
        100.0       100.1       100.1       100.1       100.2       100.2       100.2       100.3       100.3       100.3    
        100.4       100.4       100.4       100.4       100.5       100.5       100.5       100.5       100.5       100.5    
        100.6       100.6       100.6       100.6       100.6       100.6       100.6       100.6       100.6       100.6    
        100.6       100.6       100.6       100.6       100.6       100.6       100.6       100.6       100.6       100.6    
        100.6       100.5       100.5       100.5       100.5       100.5       100.4       100.4       100.3       100.2    
        100.0    
   6    100.0       99.82       99.70       99.61       99.54       99.48       99.43       99.38       99.33       99.28    
        99.24       99.19       99.15       99.11       99.07       99.03       98.99       98.96       98.93       98.90    
        98.88       98.86       98.85       98.84       98.84       98.85       98.86       98.87       98.89       98.92    
        98.96       98.99       99.04       99.08       99.13       99.18       99.24       99.29       99.35       99.41    
        99.47       99.53       99.58       99.64       99.70       99.75       99.81       99.86       99.91       99.97    
        100.0       100.1       100.1       100.1       100.2       100.2       100.3       100.3       100.3       100.4    
        100.4       100.4       100.5       100.5       100.5       100.5       100.6       100.6       100.6       100.6    
        100.6       100.6       100.6       100.7       100.7       100.7       100.7       100.7       100.7       100.7    
        100.7       100.7       100.7       100.7       100.7       100.7       100.7       100.7       100.7       100.6    
        100.6       100.6       100.6       100.6       100.5       100.5       100.5       100.4       100.3       100.2    
        100.0    
   7    100.0       99.80       99.67       99.57       99.50       99.43       99.37       99.31       99.26       99.20    
        99.15       99.10       99.05       99.00       98.96       98.91       98.87       98.83       98.80       98.76    
        98.74       98.72       98.70       98.70       98.69       98.70       98.71       98.73       98.75       98.79    
        98.82       98.87       98.91       98.97       99.02       99.08       99.14       99.20       99.27       99.33    
        99.40       99.47       99.53       99.59       99.66       99.72       99.78       99.84       99.90       99.95    
        100.0       100.1       100.1       100.2       100.2       100.2       100.3       100.3       100.4       100.4    
        100.4       100.5       100.5       100.5       100.6       100.6       100.6       100.6       100.6       100.7    
        100.7       100.7       100.7       100.7       100.7       100.7       100.7       100.7       100.8       100.8    
        100.8       100.8       100.8       100.8       100.7       100.7       100.7       100.7       100.7       100.7    
        100.7       100.7       100.6       100.6       100.6       100.5       100.5       100.4       100.3       100.2    
        100.0    
   8    100.0       99.79       99.64       99.54       99.45       99.38       99.31       99.25       99.19       99.13    
        99.07       99.01       98.96       98.90       98.85       98.80       98.75       98.71       98.67       98.63    
        98.60       98.58       98.56       98.55       98.55       98.55       98.57       98.59       98.61       98.65    
        98.69       98.74       98.79       98.85       98.91       98.98       99.05       99.12       99.19       99.26    
        99.33       99.41       99.48       99.55       99.62       99.69       99.75       99.82       99.88       99.94    
        100.0       100.1       100.1       100.2       100.2       100.3       100.3       100.3       100.4       100.4    
        100.5       100.5       100.5       100.6       100.6       100.6       100.6       100.7       100.7       100.7    
        100.7       100.7       100.8       100.8       100.8       100.8       100.8       100.8       100.8       100.8    
        100.8       100.8       100.8       100.8       100.8       100.8       100.8       100.8       100.8       100.7    
        100.7       100.7       100.7       100.6       100.6       100.6       100.5       100.4       100.4       100.2    
        100.0    
   9    100.0       99.77       99.62       99.50       99.41       99.33       99.26       99.19       99.12       99.05    
        98.99       98.93       98.86       98.80       98.74       98.69       98.63       98.58       98.54       98.50    
        98.46       98.44       98.42       98.40       98.40       98.40       98.42       98.44       98.47       98.51    
        98.56       98.61       98.67       98.74       98.81       98.88       98.95       99.03       99.11       99.19    
        99.27       99.35       99.43       99.50       99.58       99.65       99.73       99.80       99.86       99.93    
        99.99       100.1       100.1       100.2       100.2       100.3       100.3       100.4       100.4       100.5    
        100.5       100.5       100.6       100.6       100.6       100.7       100.7       100.7       100.7       100.7    
        100.8       100.8       100.8       100.8       100.8       100.8       100.8       100.8       100.8       100.9    
        100.9       100.9       100.9       100.8       100.8       100.8       100.8       100.8       100.8       100.8    
        100.8       100.7       100.7       100.7       100.6       100.6       100.5       100.5       100.4       100.2    
        100.0    
  10    100.0       99.76       99.59       99.47       99.37       99.28       99.20       99.13       99.05       98.98    
        98.91       98.84       98.77       98.71       98.64       98.58       98.52       98.46       98.41       98.36    
        98.32       98.29       98.27       98.25       98.25       98.25       98.27       98.29       98.33       98.37    
        98.42       98.48       98.55       98.62       98.70       98.78       98.86       98.95       99.03       99.12    
        99.21       99.29       99.38       99.46       99.54       99.62       99.70       99.77       99.85       99.92    
        99.98       100.0       100.1       100.2       100.2       100.3       100.3       100.4       100.4       100.5    
        100.5       100.6       100.6       100.6       100.7       100.7       100.7       100.7       100.8       100.8    
        100.8       100.8       100.8       100.8       100.9       100.9       100.9       100.9       100.9       100.9    
        100.9       100.9       100.9       100.9       100.9       100.9       100.9       100.8       100.8       100.8    
        100.8       100.8       100.7       100.7       100.7       100.6       100.6       100.5       100.4       100.2    
        100.0    
  11    100.0       99.74       99.57       99.44       99.33       99.24       99.15       99.07       98.99       98.91    
        98.83       98.76       98.68       98.61       98.53       98.46       98.40       98.33       98.27       98.22    
        98.18       98.14       98.11       98.10       98.09       98.09       98.11       98.14       98.18       98.22    
        98.28       98.35       98.42       98.50       98.59       98.67       98.77       98.86       98.95       99.05    
        99.14       99.23       99.33       99.42       99.50       99.59       99.67       99.75       99.83       99.90    
        99.98       100.0       100.1       100.2       100.2       100.3       100.3       100.4       100.4       100.5    
        100.5       100.6       100.6       100.6       100.7       100.7       100.7       100.8       100.8       100.8    
        100.8       100.9       100.9       100.9       100.9       100.9       100.9       100.9       100.9       100.9    
        100.9       100.9       100.9       100.9       100.9       100.9       100.9       100.9       100.9       100.8    
        100.8       100.8       100.8       100.7       100.7       100.6       100.6       100.5       100.4       100.2    
        100.0    
  12    100.0       99.73       99.54       99.41       99.29       99.19       99.10       99.01       98.93       98.84    
        98.76       98.67       98.59       98.51       98.43       98.35       98.27       98.20       98.14       98.08    
        98.03       97.99       97.95       97.93       97.93       97.93       97.95       97.98       98.02       98.07    
        98.14       98.21       98.29       98.38       98.47       98.57       98.67       98.77       98.87       98.97    
        99.08       99.18       99.28       99.37       99.47       99.56       99.64       99.73       99.81       99.89    
        99.97       100.0       100.1       100.2       100.2       100.3       100.4       100.4       100.5       100.5    
        100.6       100.6       100.6       100.7       100.7       100.7       100.8       100.8       100.8       100.8    
        100.9       100.9       100.9       100.9       100.9       100.9       101.0       101.0       101.0       101.0    
        101.0       101.0       101.0       101.0       100.9       100.9       100.9       100.9       100.9       100.9    
        100.9       100.8       100.8       100.8       100.7       100.7       100.6       100.5       100.4       100.2    
        100.0    
  13    100.0       99.71       99.52       99.38       99.26       99.15       99.05       98.96       98.86       98.77    
        98.68       98.59       98.50       98.41       98.32       98.23       98.15       98.07       98.00       97.93    
        97.87       97.82       97.79       97.76       97.75       97.76       97.78       97.81       97.86       97.92    
        97.99       98.07       98.16       98.25       98.36       98.46       98.57       98.68       98.79       98.90    
        99.01       99.12       99.23       99.33       99.43       99.52       99.62       99.71       99.79       99.88    
        99.96       100.0       100.1       100.2       100.2       100.3       100.4       100.4       100.5       100.5    
        100.6       100.6       100.7       100.7       100.7       100.8       100.8       100.8       100.9       100.9    
        100.9       100.9       100.9       100.9       101.0       101.0       101.0       101.0       101.0       101.0    
        101.0       101.0       101.0       101.0       101.0       101.0       101.0       100.9       100.9       100.9    
        100.9       100.8       100.8       100.8       100.7       100.7       100.6       100.5       100.4       100.3    
        100.0    
  14    100.0       99.70       99.50       99.35       99.22       99.11       99.00       98.90       98.80       98.71    
        98.61       98.51       98.41       98.31       98.21       98.12       98.03       97.94       97.85       97.78    
        97.71       97.66       97.62       97.59       97.58       97.58       97.60       97.64       97.69       97.75    
        97.83       97.92       98.02       98.13       98.24       98.35       98.47       98.59       98.71       98.83    
        98.95       99.06       99.18       99.29       99.39       99.49       99.59       99.69       99.78       99.86    
        99.95       100.0       100.1       100.2       100.2       100.3       100.4       100.4       100.5       100.5    
        100.6       100.6       100.7       100.7       100.8       100.8       100.8       100.9       100.9       100.9    
        100.9       100.9       101.0       101.0       101.0       101.0       101.0       101.0       101.0       101.0    
        101.0       101.0       101.0       101.0       101.0       101.0       101.0       101.0       100.9       100.9    
        100.9       100.9       100.8       100.8       100.8       100.7       100.6       100.5       100.4       100.3    
        100.0    
  15    100.0       99.69       99.48       99.32       99.18       99.07       98.96       98.85       98.74       98.64    
        98.53       98.43       98.32       98.21       98.11       98.00       97.90       97.80       97.71       97.62    
        97.55       97.49       97.44       97.41       97.39       97.39       97.42       97.46       97.51       97.58    
        97.67       97.77       97.88       98.00       98.12       98.25       98.37       98.50       98.63       98.76    
        98.89       99.01       99.13       99.24       99.36       99.46       99.57       99.67       99.76       99.85    
        99.94       100.0       100.1       100.2       100.2       100.3       100.4       100.4       100.5       100.6    
        100.6       100.6       100.7       100.7       100.8       100.8       100.8       100.9       100.9       100.9    
        101.0       101.0       101.0       101.0       101.0       101.0       101.0       101.0       101.1       101.1    
        101.1       101.1       101.0       101.0       101.0       101.0       101.0       101.0       101.0       101.0    
        100.9       100.9       100.9       100.8       100.8       100.7       100.6       100.6       100.4       100.3    
        100.0    
  16    100.0       99.67       99.46       99.29       99.15       99.03       98.91       98.80       98.69       98.58    
        98.46       98.35       98.23       98.12       98.00       97.89       97.77       97.67       97.56       97.47    
        97.38       97.31       97.26       97.22       97.20       97.20       97.23       97.27       97.33       97.41    
        97.51       97.62       97.74       97.87       98.00       98.14       98.28       98.42       98.55       98.69    
        98.83       98.96       99.08       99.20       99.32       99.44       99.54       99.65       99.75       99.84    
        99.93       100.0       100.1       100.2       100.3       100.3       100.4       100.5       100.5       100.6    
        100.6       100.7       100.7       100.8       100.8       100.8       100.9       100.9       100.9       101.0    
        101.0       101.0       101.0       101.0       101.0       101.1       101.1       101.1       101.1       101.1    
        101.1       101.1       101.1       101.1       101.1       101.0       101.0       101.0       101.0       101.0    
        100.9       100.9       100.9       100.8       100.8       100.7       100.7       100.6       100.4       100.3    
        100.0    
  17    100.0       99.66       99.44       99.26       99.12       98.99       98.87       98.75       98.63       98.52    
        98.40       98.27       98.15       98.03       97.90       97.77       97.65       97.53       97.42       97.31    
        97.22       97.14       97.07       97.03       97.01       97.01       97.03       97.08       97.15       97.24    
        97.35       97.47       97.60       97.74       97.88       98.03       98.18       98.33       98.48       98.63    
        98.77       98.91       99.04       99.17       99.29       99.41       99.52       99.63       99.74       99.83    
        99.93       100.0       100.1       100.2       100.3       100.3       100.4       100.5       100.5       100.6    
        100.6       100.7       100.7       100.8       100.8       100.9       100.9       100.9       100.9       101.0    
        101.0       101.0       101.0       101.1       101.1       101.1       101.1       101.1       101.1       101.1    
        101.1       101.1       101.1       101.1       101.1       101.1       101.1       101.0       101.0       101.0    
        101.0       100.9       100.9       100.9       100.8       100.7       100.7       100.6       100.5       100.3    
        100.0    
  18    100.0       99.65       99.42       99.24       99.09       98.96       98.83       98.71       98.58       98.46    
        98.33       98.20       98.07       97.94       97.80       97.67       97.53       97.40       97.27       97.16    
        97.05       96.96       96.89       96.84       96.81       96.81       96.84       96.89       96.97       97.07    
        97.18       97.32       97.46       97.61       97.77       97.93       98.09       98.25       98.41       98.56    
        98.71       98.86       99.00       99.13       99.26       99.39       99.51       99.62       99.73       99.83    
        99.92       100.0       100.1       100.2       100.3       100.3       100.4       100.5       100.5       100.6    
        100.6       100.7       100.7       100.8       100.8       100.9       100.9       100.9       101.0       101.0    
        101.0       101.0       101.1       101.1       101.1       101.1       101.1       101.1       101.1       101.1    
        101.1       101.1       101.1       101.1       101.1       101.1       101.1       101.1       101.0       101.0    
        101.0       101.0       100.9       100.9       100.8       100.8       100.7       100.6       100.5       100.3    
        100.0    
  19    100.0       99.64       99.40       99.22       99.07       98.93       98.80       98.67       98.54       98.41    
        98.27       98.14       98.00       97.85       97.71       97.56       97.42       97.27       97.14       97.01    
        96.89       96.79       96.71       96.65       96.62       96.62       96.65       96.71       96.79       96.90    
        97.03       97.17       97.33       97.49       97.66       97.83       98.01       98.18       98.34       98.51    
        98.67       98.82       98.96       99.11       99.24       99.37       99.49       99.61       99.72       99.82    
        99.92       100.0       100.1       100.2       100.3       100.3       100.4       100.5       100.6       100.6    
        100.7       100.7       100.8       100.8       100.9       100.9       100.9       101.0       101.0       101.0    
        101.0       101.1       101.1       101.1       101.1       101.1       101.1       101.1       101.2       101.2    
        101.2       101.2       101.1       101.1       101.1       101.1       101.1       101.1       101.1       101.0    
        101.0       101.0       100.9       100.9       100.8       100.8       100.7       100.6       100.5       100.3    
        100.0    
  20    100.0       99.63       99.39       99.20       99.04       98.90       98.76       98.63       98.50       98.36    
        98.22       98.08       97.93       97.78       97.62       97.47       97.31       97.16       97.01       96.87    
        96.74       96.63       96.54       96.47       96.44       96.44       96.47       96.53       96.62       96.74    
        96.88       97.03       97.20       97.38       97.56       97.74       97.93       98.11       98.29       98.46    
        98.62       98.78       98.93       99.08       99.22       99.35       99.48       99.60       99.71       99.82    
        99.92       100.0       100.1       100.2       100.3       100.4       100.4       100.5       100.6       100.6    
        100.7       100.7       100.8       100.8       100.9       100.9       101.0       101.0       101.0       101.0    
        101.1       101.1       101.1       101.1       101.1       101.2       101.2       101.2       101.2       101.2    
        101.2       101.2       101.2       101.2       101.1       101.1       101.1       101.1       101.1       101.1    
        101.0       101.0       100.9       100.9       100.8       100.8       100.7       100.6       100.5       100.3    
        100.0    
  21    100.0       99.63       99.38       99.19       99.03       98.88       98.74       98.60       98.46       98.32    
        98.18       98.03       97.87       97.71       97.55       97.38       97.22       97.05       96.89       96.74    
        96.60       96.48       96.38       96.31       96.27       96.27       96.30       96.37       96.46       96.59    
        96.74       96.91       97.09       97.28       97.47       97.67       97.86       98.05       98.24       98.41    
        98.59       98.75       98.91       99.06       99.21       99.34       99.47       99.60       99.71       99.82    
        99.93       100.0       100.1       100.2       100.3       100.4       100.4       100.5       100.6       100.6    
        100.7       100.8       100.8       100.9       100.9       100.9       101.0       101.0       101.0       101.1    
        101.1       101.1       101.1       101.2       101.2       101.2       101.2       101.2       101.2       101.2    
        101.2       101.2       101.2       101.2       101.2       101.2       101.1       101.1       101.1       101.1    
        101.0       101.0       101.0       100.9       100.9       100.8       100.7       100.6       100.5       100.3    
        100.0    
  22    100.0       99.62       99.37       99.17       99.01       98.86       98.72       98.58       98.44       98.29    
        98.14       97.99       97.82       97.66       97.49       97.31       97.14       96.96       96.79       96.63    
        96.48       96.35       96.24       96.16       96.12       96.12       96.15       96.22       96.33       96.46    
        96.62       96.80       96.99       97.19       97.40       97.60       97.80       98.00       98.20       98.38    
        98.56       98.73       98.89       99.05       99.20       99.34       99.47       99.59       99.71       99.83    
        99.93       100.0       100.1       100.2       100.3       100.4       100.5       100.5       100.6       100.7    
        100.7       100.8       100.8       100.9       100.9       101.0       101.0       101.0       101.1       101.1    
        101.1       101.1       101.2       101.2       101.2       101.2       101.2       101.2       101.2       101.2    
        101.2       101.2       101.2       101.2       101.2       101.2       101.2       101.1       101.1       101.1    
        101.1       101.0       101.0       100.9       100.9       100.8       100.7       100.6       100.5       100.3    
        100.0    
  23    100.0       99.62       99.36       99.17       99.00       98.85       98.70       98.56       98.42       98.27    
        98.11       97.95       97.79       97.62       97.44       97.26       97.07       96.89       96.71       96.54    
        96.38       96.24       96.13       96.04       96.00       95.99       96.03       96.10       96.22       96.36    
        96.53       96.72       96.92       97.13       97.34       97.55       97.76       97.97       98.17       98.36    
        98.54       98.72       98.88       99.04       99.19       99.34       99.47       99.60       99.72       99.83    
        99.94       100.0       100.1       100.2       100.3       100.4       100.5       100.5       100.6       100.7    
        100.7       100.8       100.8       100.9       100.9       101.0       101.0       101.0       101.1       101.1    
        101.1       101.2       101.2       101.2       101.2       101.2       101.2       101.2       101.2       101.2    
        101.2       101.2       101.2       101.2       101.2       101.2       101.2       101.2       101.1       101.1    
        101.1       101.0       101.0       100.9       100.9       100.8       100.7       100.6       100.5       100.3    
        100.0    
  24    100.0       99.62       99.36       99.16       98.99       98.84       98.70       98.55       98.40       98.25    
        98.10       97.93       97.76       97.59       97.41       97.22       97.03       96.84       96.65       96.47    
        96.31       96.16       96.04       95.96       95.91       95.90       95.94       96.02       96.13       96.28    
        96.46       96.66       96.87       97.08       97.30       97.52       97.74       97.95       98.15       98.35    
        98.53       98.71       98.88       99.04       99.20       99.34       99.48       99.61       99.73       99.85    
        99.95       100.1       100.2       100.2       100.3       100.4       100.5       100.6       100.6       100.7    
        100.8       100.8       100.9       100.9       101.0       101.0       101.0       101.1       101.1       101.1    
        101.2       101.2       101.2       101.2       101.2       101.2       101.3       101.3       101.3       101.3    
        101.3       101.3       101.2       101.2       101.2       101.2       101.2       101.2       101.1       101.1    
        101.1       101.0       101.0       101.0       100.9       100.8       100.7       100.6       100.5       100.3    
        100.0    
  25    100.0       99.62       99.36       99.16       98.99       98.84       98.69       98.55       98.40       98.25    
        98.09       97.93       97.75       97.58       97.39       97.20       97.01       96.81       96.62       96.44    
        96.27       96.12       96.00       95.91       95.86       95.85       95.89       95.97       96.09       96.24    
        96.43       96.63       96.84       97.06       97.29       97.51       97.73       97.94       98.15       98.35    
        98.54       98.72       98.89       99.05       99.21       99.35       99.49       99.62       99.74       99.86    
        99.97       100.1       100.2       100.3       100.4       100.4       100.5       100.6       100.7       100.7    
        100.8       100.8       100.9       100.9       101.0       101.0       101.1       101.1       101.1       101.2    
        101.2       101.2       101.2       101.2       101.3       101.3       101.3       101.3       101.3       101.3    
        101.3       101.3       101.3       101.3       101.2       101.2       101.2       101.2       101.2       101.1    
        101.1       101.1       101.0       101.0       100.9       100.8       100.8       100.6       100.5       100.3    
        100.0    
  26    100.0       99.62       99.36       99.17       99.00       98.85       98.70       98.55       98.40       98.25    
        98.09       97.93       97.76       97.58       97.39       97.20       97.01       96.81       96.62       96.44    
        96.27       96.12       95.99       95.90       95.85       95.84       95.88       95.96       96.09       96.24    
        96.43       96.63       96.84       97.07       97.29       97.52       97.74       97.95       98.16       98.36    
        98.55       98.73       98.90       99.07       99.22       99.37       99.51       99.64       99.76       99.88    
        99.99       100.1       100.2       100.3       100.4       100.5       100.5       100.6       100.7       100.7    
        100.8       100.9       100.9       101.0       101.0       101.0       101.1       101.1       101.1       101.2    
        101.2       101.2       101.2       101.3       101.3       101.3       101.3       101.3       101.3       101.3    
        101.3       101.3       101.3       101.3       101.3       101.2       101.2       101.2       101.2       101.1    
        101.1       101.1       101.0       101.0       100.9       100.8       100.8       100.7       100.5       100.3    
        100.0    
  27    100.0       99.62       99.37       99.17       99.01       98.86       98.71       98.57       98.42       98.27    
        98.11       97.95       97.78       97.60       97.42       97.23       97.03       96.84       96.65       96.47    
        96.30       96.15       96.03       95.94       95.89       95.88       95.92       96.00       96.12       96.28    
        96.46       96.66       96.88       97.10       97.32       97.55       97.77       97.98       98.19       98.38    
        98.57       98.76       98.93       99.09       99.25       99.39       99.53       99.66       99.79       99.90    
        100.0       100.1       100.2       100.3       100.4       100.5       100.6       100.6       100.7       100.8    
        100.8       100.9       100.9       101.0       101.0       101.1       101.1       101.1       101.2       101.2    
        101.2       101.2       101.3       101.3       101.3       101.3       101.3       101.3       101.3       101.3    
        101.3       101.3       101.3       101.3       101.3       101.3       101.2       101.2       101.2       101.2    
        101.1       101.1       101.0       101.0       100.9       100.9       100.8       100.7       100.5       100.3    
        100.0    
  28    100.0       99.63       99.38       99.19       99.02       98.87       98.73       98.59       98.44       98.29    
        98.14       97.98       97.81       97.64       97.46       97.27       97.08       96.89       96.71       96.53    
        96.37       96.22       96.10       96.02       95.97       95.96       96.00       96.08       96.20       96.35    
        96.53       96.73       96.94       97.15       97.37       97.59       97.81       98.02       98.23       98.42    
        98.61       98.79       98.96       99.12       99.28       99.42       99.56       99.69       99.81       99.93    
        100.0       100.1       100.2       100.3       100.4       100.5       100.6       100.7       100.7       100.8    
        100.8       100.9       100.9       101.0       101.0       101.1       101.1       101.2       101.2       101.2    
        101.2       101.3       101.3       101.3       101.3       101.3       101.3       101.3       101.3       101.3    
        101.3       101.3       101.3       101.3       101.3       101.3       101.3       101.2       101.2       101.2    
        101.1       101.1       101.1       101.0       100.9       100.9       100.8       100.7       100.5       100.3    
        100.0    
  29    100.0       99.64       99.39       99.20       99.04       98.89       98.75       98.61       98.47       98.33    
        98.18       98.02       97.86       97.69       97.51       97.33       97.15       96.97       96.79       96.62    
        96.46       96.33       96.22       96.13       96.09       96.09       96.12       96.20       96.32       96.46    
        96.63       96.82       97.02       97.23       97.45       97.66       97.87       98.08       98.28       98.47    
        98.66       98.83       99.00       99.16       99.31       99.46       99.59       99.72       99.84       99.96    
        100.1       100.2       100.3       100.4       100.4       100.5       100.6       100.7       100.7       100.8    
        100.9       100.9       101.0       101.0       101.1       101.1       101.1       101.2       101.2       101.2    
        101.3       101.3       101.3       101.3       101.3       101.3       101.3       101.4       101.4       101.4    
        101.4       101.3       101.3       101.3       101.3       101.3       101.3       101.2       101.2       101.2    
        101.2       101.1       101.1       101.0       100.9       100.9       100.8       100.7       100.5       100.3    
        100.0    
  30    100.0       99.64       99.41       99.22       99.07       98.92       98.79       98.65       98.51       98.37    
        98.22       98.07       97.92       97.75       97.58       97.41       97.24       97.07       96.90       96.74    
        96.59       96.46       96.36       96.28       96.24       96.24       96.28       96.35       96.46       96.60    
        96.76       96.94       97.13       97.34       97.54       97.75       97.95       98.15       98.35       98.53    
        98.71       98.89       99.05       99.21       99.36       99.50       99.63       99.76       99.88       99.99    
        100.1       100.2       100.3       100.4       100.5       100.6       100.6       100.7       100.8       100.8    
        100.9       100.9       101.0       101.0       101.1       101.1       101.2       101.2       101.2       101.3    
        101.3       101.3       101.3       101.3       101.4       101.4       101.4       101.4       101.4       101.4    
        101.4       101.4       101.4       101.3       101.3       101.3       101.3       101.3       101.2       101.2    
        101.2       101.1       101.1       101.0       101.0       100.9       100.8       100.7       100.5       100.3    
        100.0    
  31    100.0       99.66       99.42       99.25       99.09       98.96       98.82       98.69       98.56       98.42    
        98.28       98.14       97.99       97.83       97.67       97.51       97.35       97.18       97.03       96.88    
        96.74       96.62       96.53       96.46       96.43       96.43       96.46       96.53       96.63       96.76    
        96.91       97.08       97.27       97.46       97.65       97.85       98.05       98.24       98.42       98.61    
        98.78       98.95       99.11       99.26       99.41       99.54       99.68       99.80       99.92       100.0    
        100.1       100.2       100.3       100.4       100.5       100.6       100.7       100.7       100.8       100.9    
        100.9       101.0       101.0       101.1       101.1       101.2       101.2       101.2       101.3       101.3    
        101.3       101.3       101.3       101.4       101.4       101.4       101.4       101.4       101.4       101.4    
        101.4       101.4       101.4       101.4       101.3       101.3       101.3       101.3       101.2       101.2    
        101.2       101.1       101.1       101.0       101.0       100.9       100.8       100.7       100.5       100.3    
        100.0    
  32    100.0       99.67       99.44       99.27       99.13       98.99       98.87       98.74       98.61       98.48    
        98.35       98.21       98.07       97.92       97.77       97.62       97.47       97.32       97.17       97.03    
        96.91       96.80       96.72       96.66       96.63       96.63       96.66       96.73       96.82       96.94    
        97.08       97.24       97.41       97.59       97.78       97.96       98.15       98.33       98.51       98.69    
        98.85       99.02       99.17       99.32       99.46       99.60       99.72       99.85       99.96       100.1    
        100.2       100.3       100.4       100.5       100.5       100.6       100.7       100.8       100.8       100.9    
        100.9       101.0       101.0       101.1       101.1       101.2       101.2       101.2       101.3       101.3    
        101.3       101.3       101.4       101.4       101.4       101.4       101.4       101.4       101.4       101.4    
        101.4       101.4       101.4       101.4       101.4       101.3       101.3       101.3       101.3       101.2    
        101.2       101.1       101.1       101.0       101.0       100.9       100.8       100.7       100.5       100.3    
        100.0    
  33    100.0       99.68       99.47       99.30       99.16       99.04       98.91       98.79       98.67       98.55    
        98.42       98.29       98.16       98.02       97.88       97.74       97.60       97.46       97.33       97.20    
        97.09       96.99       96.92       96.87       96.84       96.84       96.88       96.94       97.02       97.13    
        97.27       97.41       97.57       97.74       97.91       98.09       98.26       98.44       98.61       98.78    
        98.94       99.09       99.24       99.38       99.52       99.65       99.78       99.90       100.0       100.1    
        100.2       100.3       100.4       100.5       100.6       100.7       100.7       100.8       100.9       100.9    
        101.0       101.0       101.1       101.1       101.2       101.2       101.2       101.3       101.3       101.3    
        101.3       101.4       101.4       101.4       101.4       101.4       101.4       101.4       101.4       101.4    
        101.4       101.4       101.4       101.4       101.4       101.4       101.3       101.3       101.3       101.2    
        101.2       101.2       101.1       101.1       101.0       100.9       100.8       100.7       100.5       100.3    
        100.0    
  34    100.0       99.70       99.49       99.34       99.20       99.08       98.97       98.85       98.74       98.62    
        98.50       98.38       98.25       98.13       98.00       97.87       97.74       97.61       97.49       97.38    
        97.28       97.19       97.13       97.08       97.06       97.07       97.10       97.15       97.23       97.34    
        97.46       97.59       97.74       97.90       98.06       98.22       98.39       98.55       98.71       98.87    
        99.02       99.17       99.32       99.45       99.59       99.71       99.83       99.95       100.1       100.2    
        100.3       100.4       100.4       100.5       100.6       100.7       100.8       100.8       100.9       100.9    
        101.0       101.1       101.1       101.1       101.2       101.2       101.3       101.3       101.3       101.3    
        101.4       101.4       101.4       101.4       101.4       101.4       101.4       101.4       101.4       101.4    
        101.4       101.4       101.4       101.4       101.4       101.4       101.3       101.3       101.3       101.3    
        101.2       101.2       101.1       101.1       101.0       100.9       100.8       100.7       100.6       100.3    
        100.0    
  35    100.0       99.71       99.52       99.37       99.25       99.13       99.02       98.91       98.81       98.70    
        98.59       98.47       98.36       98.24       98.12       98.00       97.88       97.77       97.66       97.56    
        97.47       97.40       97.34       97.30       97.29       97.29       97.32       97.37       97.45       97.54    
        97.65       97.78       97.91       98.06       98.21       98.36       98.51       98.67       98.82       98.97    
        99.12       99.26       99.40       99.53       99.65       99.78       99.89       100.0       100.1       100.2    
        100.3       100.4       100.5       100.6       100.6       100.7       100.8       100.9       100.9       101.0    
        101.0       101.1       101.1       101.2       101.2       101.2       101.3       101.3       101.3       101.4    
        101.4       101.4       101.4       101.4       101.4       101.5       101.5       101.5       101.5       101.5    
        101.5       101.4       101.4       101.4       101.4       101.4       101.4       101.3       101.3       101.3    
        101.2       101.2       101.1       101.1       101.0       100.9       100.8       100.7       100.6       100.3    
        100.0    
  36    100.0       99.73       99.55       99.41       99.29       99.18       99.08       98.98       98.88       98.78    
        98.67       98.57       98.46       98.35       98.25       98.14       98.03       97.93       97.83       97.74    
        97.67       97.60       97.55       97.52       97.51       97.52       97.55       97.59       97.66       97.75    
        97.85       97.96       98.09       98.22       98.36       98.50       98.65       98.79       98.93       99.07    
        99.21       99.35       99.48       99.60       99.73       99.84       99.96       100.1       100.2       100.3    
        100.4       100.4       100.5       100.6       100.7       100.8       100.8       100.9       100.9       101.0    
        101.1       101.1       101.2       101.2       101.2       101.3       101.3       101.3       101.4       101.4    
        101.4       101.4       101.4       101.5       101.5       101.5       101.5       101.5       101.5       101.5    
        101.5       101.5       101.4       101.4       101.4       101.4       101.4       101.3       101.3       101.3    
        101.2       101.2       101.1       101.1       101.0       100.9       100.8       100.7       100.6       100.3    
        100.0    
  37    100.0       99.75       99.58       99.45       99.34       99.24       99.14       99.05       98.95       98.86    
        98.77       98.67       98.57       98.47       98.37       98.28       98.18       98.09       98.01       97.93    
        97.86       97.80       97.76       97.74       97.73       97.74       97.77       97.81       97.87       97.95    
        98.05       98.15       98.26       98.39       98.51       98.65       98.78       98.91       99.05       99.18    
        99.31       99.44       99.56       99.68       99.80       99.91       100.0       100.1       100.2       100.3    
        100.4       100.5       100.6       100.7       100.7       100.8       100.9       100.9       101.0       101.0    
        101.1       101.1       101.2       101.2       101.3       101.3       101.3       101.4       101.4       101.4    
        101.4       101.4       101.5       101.5       101.5       101.5       101.5       101.5       101.5       101.5    
        101.5       101.5       101.5       101.4       101.4       101.4       101.4       101.4       101.3       101.3    
        101.2       101.2       101.1       101.1       101.0       100.9       100.8       100.7       100.6       100.3    
        100.0    
  38    100.0       99.77       99.61       99.49       99.39       99.29       99.20       99.12       99.03       98.95    
        98.86       98.77       98.68       98.59       98.50       98.42       98.33       98.25       98.18       98.11    
        98.05       98.00       97.97       97.95       97.94       97.95       97.98       98.02       98.08       98.15    
        98.24       98.33       98.44       98.55       98.67       98.79       98.91       99.04       99.17       99.29    
        99.41       99.53       99.65       99.76       99.88       99.98       100.1       100.2       100.3       100.4    
        100.5       100.5       100.6       100.7       100.8       100.8       100.9       101.0       101.0       101.1    
        101.1       101.2       101.2       101.3       101.3       101.3       101.4       101.4       101.4       101.4    
        101.5       101.5       101.5       101.5       101.5       101.5       101.5       101.5       101.5       101.5    
        101.5       101.5       101.5       101.5       101.4       101.4       101.4       101.4       101.3       101.3    
        101.3       101.2       101.2       101.1       101.0       100.9       100.9       100.7       100.6       100.3    
        100.0    
  39    100.0       99.79       99.64       99.53       99.44       99.35       99.27       99.19       99.11       99.03    
        98.95       98.87       98.79       98.71       98.63       98.55       98.48       98.41       98.34       98.29    
        98.24       98.20       98.17       98.15       98.15       98.16       98.19       98.23       98.28       98.35    
        98.42       98.51       98.61       98.71       98.82       98.93       99.05       99.17       99.28       99.40    
        99.51       99.63       99.74       99.85       99.95       100.1       100.2       100.2       100.3       100.4    
        100.5       100.6       100.7       100.7       100.8       100.9       100.9       101.0       101.1       101.1    
        101.2       101.2       101.2       101.3       101.3       101.3       101.4       101.4       101.4       101.5    
        101.5       101.5       101.5       101.5       101.5       101.5       101.5       101.5       101.5       101.5    
        101.5       101.5       101.5       101.5       101.5       101.4       101.4       101.4       101.3       101.3    
        101.3       101.2       101.2       101.1       101.0       101.0       100.9       100.7       100.6       100.4    
        100.0    
  40    100.0       99.81       99.67       99.57       99.49       99.41       99.33       99.26       99.19       99.12    
        99.05       98.97       98.90       98.83       98.76       98.69       98.63       98.56       98.51       98.46    
        98.41       98.38       98.36       98.35       98.35       98.36       98.38       98.42       98.47       98.53    
        98.61       98.69       98.78       98.87       98.97       99.07       99.18       99.29       99.40       99.51    
        99.62       99.72       99.83       99.93       100.0       100.1       100.2       100.3       100.4       100.5    
        100.6       100.6       100.7       100.8       100.9       100.9       101.0       101.0       101.1       101.1    
        101.2       101.2       101.3       101.3       101.3       101.4       101.4       101.4       101.5       101.5    
        101.5       101.5       101.5       101.5       101.5       101.5       101.5       101.5       101.5       101.5    
        101.5       101.5       101.5       101.5       101.5       101.4       101.4       101.4       101.4       101.3    
        101.3       101.2       101.2       101.1       101.0       101.0       100.9       100.7       100.6       100.4    
        100.0    
  41    100.0       99.82       99.71       99.61       99.54       99.47       99.40       99.33       99.27       99.21    
        99.14       99.08       99.01       98.95       98.89       98.83       98.77       98.71       98.67       98.62    
        98.59       98.56       98.54       98.53       98.54       98.55       98.57       98.61       98.66       98.71    
        98.78       98.85       98.94       99.02       99.12       99.21       99.31       99.41       99.51       99.62    
        99.72       99.82       99.92       100.0       100.1       100.2       100.3       100.4       100.5       100.5    
        100.6       100.7       100.8       100.8       100.9       101.0       101.0       101.1       101.1       101.2    
        101.2       101.3       101.3       101.3       101.4       101.4       101.4       101.5       101.5       101.5    
        101.5       101.5       101.5       101.5       101.6       101.6       101.6       101.6       101.6       101.5    
        101.5       101.5       101.5       101.5       101.5       101.5       101.4       101.4       101.4       101.3    
        101.3       101.2       101.2       101.1       101.0       101.0       100.9       100.7       100.6       100.4    
        100.0    
  42    100.0       99.84       99.74       99.66       99.59       99.53       99.47       99.41       99.35       99.29    
        99.23       99.18       99.12       99.06       99.01       98.96       98.91       98.86       98.82       98.78    
        98.75       98.73       98.72       98.71       98.72       98.73       98.76       98.79       98.83       98.89    
        98.95       99.02       99.09       99.17       99.26       99.35       99.44       99.53       99.63       99.72    
        99.82       99.91       100.0       100.1       100.2       100.3       100.4       100.4       100.5       100.6    
        100.7       100.7       100.8       100.9       100.9       101.0       101.1       101.1       101.2       101.2    
        101.2       101.3       101.3       101.4       101.4       101.4       101.5       101.5       101.5       101.5    
        101.5       101.5       101.6       101.6       101.6       101.6       101.6       101.6       101.6       101.6    
        101.6       101.5       101.5       101.5       101.5       101.5       101.4       101.4       101.4       101.3    
        101.3       101.2       101.2       101.1       101.1       101.0       100.9       100.7       100.6       100.4    
        100.0    
  43    100.0       99.86       99.77       99.70       99.64       99.58       99.53       99.48       99.43       99.38    
        99.33       99.28       99.23       99.18       99.13       99.08       99.04       99.00       98.96       98.93    
        98.91       98.89       98.88       98.88       98.89       98.90       98.93       98.96       99.00       99.05    
        99.11       99.17       99.24       99.32       99.40       99.48       99.56       99.65       99.74       99.83    
        99.92       100.0       100.1       100.2       100.3       100.3       100.4       100.5       100.6       100.7    
        100.7       100.8       100.9       100.9       101.0       101.0       101.1       101.1       101.2       101.2    
        101.3       101.3       101.4       101.4       101.4       101.4       101.5       101.5       101.5       101.5    
        101.6       101.6       101.6       101.6       101.6       101.6       101.6       101.6       101.6       101.6    
        101.6       101.6       101.5       101.5       101.5       101.5       101.4       101.4       101.4       101.3    
        101.3       101.2       101.2       101.1       101.1       101.0       100.9       100.8       100.6       100.4    
        100.0    
  44    100.0       99.88       99.80       99.74       99.69       99.64       99.59       99.55       99.50       99.46    
        99.42       99.37       99.33       99.29       99.24       99.20       99.17       99.13       99.11       99.08    
        99.06       99.05       99.04       99.04       99.05       99.07       99.09       99.12       99.16       99.21    
        99.26       99.32       99.38       99.45       99.53       99.60       99.68       99.76       99.85       99.93    
        100.0       100.1       100.2       100.3       100.3       100.4       100.5       100.6       100.6       100.7    
        100.8       100.8       100.9       101.0       101.0       101.1       101.1       101.2       101.2       101.3    
        101.3       101.3       101.4       101.4       101.4       101.5       101.5       101.5       101.5       101.6    
        101.6       101.6       101.6       101.6       101.6       101.6       101.6       101.6       101.6       101.6    
        101.6       101.6       101.5       101.5       101.5       101.5       101.5       101.4       101.4       101.3    
        101.3       101.3       101.2       101.1       101.1       101.0       100.9       100.8       100.6       100.4    
        100.0    
  45    100.0       99.90       99.84       99.79       99.74       99.70       99.66       99.62       99.58       99.54    
        99.50       99.47       99.43       99.39       99.36       99.32       99.29       99.26       99.24       99.22    
        99.21       99.20       99.19       99.20       99.21       99.22       99.25       99.28       99.31       99.36    
        99.41       99.46       99.52       99.59       99.65       99.73       99.80       99.88       99.95       100.0    
        100.1       100.2       100.3       100.3       100.4       100.5       100.6       100.6       100.7       100.8    
        100.8       100.9       101.0       101.0       101.1       101.1       101.2       101.2       101.3       101.3    
        101.3       101.4       101.4       101.4       101.5       101.5       101.5       101.5       101.6       101.6    
        101.6       101.6       101.6       101.6       101.6       101.6       101.6       101.6       101.6       101.6    
        101.6       101.6       101.6       101.5       101.5       101.5       101.5       101.4       101.4       101.4    
        101.3       101.3       101.2       101.1       101.1       101.0       100.9       100.8       100.6       100.4    
        100.0    
  46    100.0       99.92       99.87       99.83       99.79       99.75       99.72       99.69       99.65       99.62    
        99.59       99.56       99.52       99.49       99.46       99.44       99.41       99.39       99.37       99.35    
        99.34       99.34       99.34       99.34       99.35       99.37       99.39       99.42       99.46       99.50    
        99.54       99.60       99.65       99.71       99.78       99.84       99.91       99.98       100.1       100.1    
        100.2       100.3       100.3       100.4       100.5       100.6       100.6       100.7       100.8       100.8    
        100.9       100.9       101.0       101.1       101.1       101.2       101.2       101.3       101.3       101.3    
        101.4       101.4       101.4       101.5       101.5       101.5       101.5       101.6       101.6       101.6    
        101.6       101.6       101.6       101.6       101.6       101.6       101.6       101.6       101.6       101.6    
        101.6       101.6       101.6       101.6       101.5       101.5       101.5       101.4       101.4       101.4    
        101.3       101.3       101.2       101.2       101.1       101.0       100.9       100.8       100.6       100.4    
        100.0    
  47    100.0       99.94       99.90       99.87       99.84       99.81       99.78       99.75       99.73       99.70    
        99.67       99.64       99.62       99.59       99.57       99.54       99.52       99.51       99.49       99.48    
        99.47       99.47       99.47       99.48       99.49       99.51       99.53       99.56       99.59       99.63    
        99.68       99.72       99.78       99.83       99.89       99.96       100.0       100.1       100.2       100.2    
        100.3       100.4       100.4       100.5       100.6       100.6       100.7       100.8       100.8       100.9    
        100.9       101.0       101.0       101.1       101.2       101.2       101.2       101.3       101.3       101.4    
        101.4       101.4       101.5       101.5       101.5       101.5       101.6       101.6       101.6       101.6    
        101.6       101.6       101.6       101.6       101.7       101.7       101.6       101.6       101.6       101.6    
        101.6       101.6       101.6       101.6       101.5       101.5       101.5       101.4       101.4       101.4    
        101.3       101.3       101.2       101.2       101.1       101.0       100.9       100.8       100.6       100.4    
        100.0    
  48    100.0       99.96       99.93       99.91       99.88       99.86       99.84       99.82       99.80       99.77    
        99.75       99.73       99.71       99.69       99.67       99.65       99.63       99.62       99.61       99.60    
        99.60       99.59       99.60       99.61       99.62       99.64       99.66       99.69       99.72       99.76    
        99.80       99.85       99.90       99.95       100.0       100.1       100.1       100.2       100.2       100.3    
        100.4       100.4       100.5       100.6       100.6       100.7       100.8       100.8       100.9       100.9    
        101.0       101.0       101.1       101.1       101.2       101.2       101.3       101.3       101.4       101.4    
        101.4       101.5       101.5       101.5       101.5       101.6       101.6       101.6       101.6       101.6    
        101.6       101.7       101.7       101.7       101.7       101.7       101.7       101.7       101.6       101.6    
        101.6       101.6       101.6       101.6       101.5       101.5       101.5       101.5       101.4       101.4    
        101.3       101.3       101.2       101.2       101.1       101.0       100.9       100.8       100.6       100.4    
        100.0    
  49    100.0       99.98       99.96       99.95       99.93       99.91       99.90       99.88       99.86       99.85    
        99.83       99.81       99.79       99.78       99.76       99.75       99.74       99.73       99.72       99.71    
        99.71       99.71       99.72       99.73       99.74       99.76       99.79       99.81       99.84       99.88    
        99.92       99.96       100.0       100.1       100.1       100.2       100.2       100.3       100.3       100.4    
        100.5       100.5       100.6       100.6       100.7       100.8       100.8       100.9       100.9       101.0    
        101.0       101.1       101.1       101.2       101.2       101.3       101.3       101.4       101.4       101.4    
        101.5       101.5       101.5       101.5       101.6       101.6       101.6       101.6       101.6       101.7    
        101.7       101.7       101.7       101.7       101.7       101.7       101.7       101.7       101.7       101.6    
        101.6       101.6       101.6       101.6       101.6       101.5       101.5       101.5       101.4       101.4    
        101.3       101.3       101.2       101.2       101.1       101.0       100.9       100.8       100.6       100.4    
        100.0    
  50    100.0      100.00       99.99       99.98       99.97       99.97       99.95       99.94       99.93       99.92    
        99.90       99.89       99.88       99.86       99.85       99.84       99.83       99.83       99.82       99.82    
        99.82       99.83       99.83       99.85       99.86       99.88       99.90       99.93       99.96       99.99    
        100.0       100.1       100.1       100.2       100.2       100.3       100.3       100.4       100.4       100.5    
        100.5       100.6       100.7       100.7       100.8       100.8       100.9       100.9       101.0       101.0    
        101.1       101.1       101.2       101.2       101.3       101.3       101.4       101.4       101.4       101.5    
        101.5       101.5       101.5       101.6       101.6       101.6       101.6       101.6       101.7       101.7    
        101.7       101.7       101.7       101.7       101.7       101.7       101.7       101.7       101.7       101.7    
        101.6       101.6       101.6       101.6       101.6       101.5       101.5       101.5       101.4       101.4    
        101.3       101.3       101.2       101.2       101.1       101.0       100.9       100.8       100.6       100.4    
        100.0    
  51    100.0       100.0       100.0       100.0       100.0       100.0       100.0       100.0       99.99       99.98    
        99.98       99.97       99.96       99.95       99.94       99.93       99.93       99.92       99.92       99.92    
        99.93       99.93       99.94       99.95       99.97       99.99       100.0       100.0       100.1       100.1    
        100.1       100.2       100.2       100.3       100.3       100.4       100.4       100.5       100.5       100.6    
        100.6       100.7       100.7       100.8       100.8       100.9       100.9       101.0       101.0       101.1    
        101.1       101.2       101.2       101.3       101.3       101.3       101.4       101.4       101.5       101.5    
        101.5       101.5       101.6       101.6       101.6       101.6       101.6       101.7       101.7       101.7    
        101.7       101.7       101.7       101.7       101.7       101.7       101.7       101.7       101.7       101.7    
        101.7       101.6       101.6       101.6       101.6       101.5       101.5       101.5       101.4       101.4    
        101.4       101.3       101.2       101.2       101.1       101.0       100.9       100.8       100.6       100.4    
        100.0    
  52    100.0       100.0       100.0       100.1       100.1       100.1       100.1       100.1       100.1       100.0    
        100.0       100.0       100.0       100.0       100.0       100.0       100.0       100.0       100.0       100.0    
        100.0       100.0       100.0       100.1       100.1       100.1       100.1       100.1       100.2       100.2    
        100.2       100.3       100.3       100.4       100.4       100.4       100.5       100.5       100.6       100.6    
        100.7       100.7       100.8       100.8       100.9       100.9       101.0       101.0       101.1       101.1    
        101.2       101.2       101.3       101.3       101.3       101.4       101.4       101.5       101.5       101.5    
        101.5       101.6       101.6       101.6       101.6       101.7       101.7       101.7       101.7       101.7    
        101.7       101.7       101.7       101.7       101.7       101.7       101.7       101.7       101.7       101.7    
        101.7       101.6       101.6       101.6       101.6       101.5       101.5       101.5       101.4       101.4    
        101.4       101.3       101.2       101.2       101.1       101.0       100.9       100.8       100.6       100.4    
        100.0    
  53    100.0       100.0       100.1       100.1       100.1       100.1       100.1       100.1       100.1       100.1    
        100.1       100.1       100.1       100.1       100.1       100.1       100.1       100.1       100.1       100.1    
        100.1       100.1       100.1       100.2       100.2       100.2       100.2       100.2       100.3       100.3    
        100.3       100.4       100.4       100.4       100.5       100.5       100.6       100.6       100.7       100.7    
        100.8       100.8       100.9       100.9       101.0       101.0       101.0       101.1       101.1       101.2    
        101.2       101.3       101.3       101.3       101.4       101.4       101.5       101.5       101.5       101.5    
        101.6       101.6       101.6       101.6       101.7       101.7       101.7       101.7       101.7       101.7    
        101.7       101.7       101.7       101.7       101.7       101.7       101.7       101.7       101.7       101.7    
        101.7       101.7       101.6       101.6       101.6       101.6       101.5       101.5       101.4       101.4    
        101.4       101.3       101.2       101.2       101.1       101.0       100.9       100.8       100.6       100.4    
        100.0    
  54    100.0       100.1       100.1       100.1       100.1       100.1       100.2       100.2       100.2       100.2    
        100.2       100.2       100.2       100.2       100.2       100.2       100.2       100.2       100.2       100.2    
[...]
        101.3       101.3       101.3       101.3       101.3       101.3       101.3       101.3       101.3       101.3    
        101.3       101.3       101.3       101.3       101.3       101.3       101.3       101.3       101.3       101.3    
        101.3       101.3       101.3       101.3       101.3       101.2       101.2       101.2       101.2       101.2    
        101.2       101.2       101.1       101.1       101.1       101.1       101.0       101.0       101.0       101.0    
        100.9       100.9       100.9       100.9       100.9       100.8       100.8       100.8       100.8       100.8    
        100.8    
  89    100.6       100.6       100.6       100.6       100.6       100.6       100.6       100.7       100.7       100.7    
        100.7       100.7       100.8       100.8       100.8       100.8       100.8       100.9       100.9       100.9    
        100.9       100.9       100.9       101.0       101.0       101.0       101.0       101.0       101.0       101.1    
        101.1       101.1       101.1       101.1       101.1       101.1       101.1       101.2       101.2       101.2    
        101.2       101.2       101.2       101.2       101.2       101.2       101.2       101.2       101.3       101.3    
        101.3       101.3       101.3       101.3       101.3       101.3       101.3       101.3       101.3       101.3    
        101.3       101.3       101.3       101.3       101.3       101.3       101.3       101.3       101.3       101.3    
        101.3       101.3       101.2       101.2       101.2       101.2       101.2       101.2       101.2       101.2    
        101.1       101.1       101.1       101.1       101.1       101.0       101.0       101.0       101.0       101.0    
        100.9       100.9       100.9       100.9       100.8       100.8       100.8       100.8       100.8       100.8    
        100.8    
  90    100.6       100.6       100.6       100.6       100.6       100.6       100.6       100.6       100.7       100.7    
        100.7       100.7       100.7       100.8       100.8       100.8       100.8       100.8       100.9       100.9    
        100.9       100.9       100.9       100.9       101.0       101.0       101.0       101.0       101.0       101.0    
        101.0       101.1       101.1       101.1       101.1       101.1       101.1       101.1       101.1       101.2    
        101.2       101.2       101.2       101.2       101.2       101.2       101.2       101.2       101.2       101.2    
        101.2       101.2       101.2       101.3       101.3       101.3       101.3       101.3       101.3       101.3    
        101.3       101.3       101.3       101.3       101.3       101.3       101.3       101.2       101.2       101.2    
        101.2       101.2       101.2       101.2       101.2       101.2       101.2       101.2       101.1       101.1    
        101.1       101.1       101.1       101.1       101.0       101.0       101.0       101.0       101.0       100.9    
        100.9       100.9       100.9       100.8       100.8       100.8       100.8       100.8       100.7       100.7    
        100.7    
  91    100.6       100.6       100.6       100.6       100.6       100.6       100.6       100.6       100.7       100.7    
        100.7       100.7       100.7       100.8       100.8       100.8       100.8       100.8       100.8       100.9    
        100.9       100.9       100.9       100.9       100.9       101.0       101.0       101.0       101.0       101.0    
        101.0       101.0       101.0       101.1       101.1       101.1       101.1       101.1       101.1       101.1    
        101.1       101.1       101.2       101.2       101.2       101.2       101.2       101.2       101.2       101.2    
        101.2       101.2       101.2       101.2       101.2       101.2       101.2       101.2       101.2       101.2    
        101.2       101.2       101.2       101.2       101.2       101.2       101.2       101.2       101.2       101.2    
        101.2       101.2       101.2       101.2       101.2       101.2       101.1       101.1       101.1       101.1    
        101.1       101.1       101.0       101.0       101.0       101.0       101.0       100.9       100.9       100.9    
        100.9       100.9       100.8       100.8       100.8       100.8       100.8       100.7       100.7       100.7    
        100.7    
  92    100.5       100.6       100.6       100.6       100.6       100.6       100.6       100.6       100.6       100.7    
        100.7       100.7       100.7       100.7       100.8       100.8       100.8       100.8       100.8       100.8    
        100.9       100.9       100.9       100.9       100.9       100.9       101.0       101.0       101.0       101.0    
        101.0       101.0       101.0       101.0       101.0       101.1       101.1       101.1       101.1       101.1    
        101.1       101.1       101.1       101.1       101.1       101.1       101.2       101.2       101.2       101.2    
        101.2       101.2       101.2       101.2       101.2       101.2       101.2       101.2       101.2       101.2    
        101.2       101.2       101.2       101.2       101.2       101.2       101.2       101.2       101.2       101.2    
        101.2       101.2       101.1       101.1       101.1       101.1       101.1       101.1       101.1       101.1    
        101.1       101.0       101.0       101.0       101.0       101.0       100.9       100.9       100.9       100.9    
        100.9       100.8       100.8       100.8       100.8       100.8       100.7       100.7       100.7       100.7    
        100.7    
  93    100.5       100.5       100.5       100.6       100.6       100.6       100.6       100.6       100.6       100.6    
        100.7       100.7       100.7       100.7       100.7       100.8       100.8       100.8       100.8       100.8    
        100.8       100.9       100.9       100.9       100.9       100.9       100.9       100.9       101.0       101.0    
        101.0       101.0       101.0       101.0       101.0       101.0       101.0       101.1       101.1       101.1    
        101.1       101.1       101.1       101.1       101.1       101.1       101.1       101.1       101.1       101.1    
        101.1       101.1       101.2       101.2       101.2       101.2       101.2       101.2       101.2       101.2    
        101.2       101.2       101.2       101.2       101.2       101.2       101.2       101.2       101.1       101.1    
        101.1       101.1       101.1       101.1       101.1       101.1       101.1       101.1       101.1       101.0    
        101.0       101.0       101.0       101.0       101.0       100.9       100.9       100.9       100.9       100.9    
        100.8       100.8       100.8       100.8       100.8       100.7       100.7       100.7       100.7       100.7    
        100.7    
  94    100.5       100.5       100.5       100.5       100.6       100.6       100.6       100.6       100.6       100.6    
        100.7       100.7       100.7       100.7       100.7       100.7       100.8       100.8       100.8       100.8    
        100.8       100.8       100.9       100.9       100.9       100.9       100.9       100.9       100.9       100.9    
        101.0       101.0       101.0       101.0       101.0       101.0       101.0       101.0       101.0       101.0    
        101.1       101.1       101.1       101.1       101.1       101.1       101.1       101.1       101.1       101.1    
        101.1       101.1       101.1       101.1       101.1       101.1       101.1       101.1       101.1       101.1    
        101.1       101.1       101.1       101.1       101.1       101.1       101.1       101.1       101.1       101.1    
        101.1       101.1       101.1       101.1       101.1       101.1       101.0       101.0       101.0       101.0    
        101.0       101.0       101.0       100.9       100.9       100.9       100.9       100.9       100.9       100.8    
        100.8       100.8       100.8       100.8       100.7       100.7       100.7       100.7       100.7       100.7    
        100.7    
  95    100.5       100.5       100.5       100.5       100.5       100.6       100.6       100.6       100.6       100.6    
        100.6       100.7       100.7       100.7       100.7       100.7       100.7       100.8       100.8       100.8    
        100.8       100.8       100.8       100.8       100.9       100.9       100.9       100.9       100.9       100.9    
        100.9       100.9       101.0       101.0       101.0       101.0       101.0       101.0       101.0       101.0    
        101.0       101.0       101.0       101.0       101.1       101.1       101.1       101.1       101.1       101.1    
        101.1       101.1       101.1       101.1       101.1       101.1       101.1       101.1       101.1       101.1    
        101.1       101.1       101.1       101.1       101.1       101.1       101.1       101.1       101.1       101.1    
        101.1       101.1       101.1       101.0       101.0       101.0       101.0       101.0       101.0       101.0    
        101.0       101.0       100.9       100.9       100.9       100.9       100.9       100.9       100.8       100.8    
        100.8       100.8       100.8       100.7       100.7       100.7       100.7       100.7       100.7       100.7    
        100.7    
  96    100.5       100.5       100.5       100.5       100.5       100.6       100.6       100.6       100.6       100.6    
        100.6       100.6       100.7       100.7       100.7       100.7       100.7       100.7       100.8       100.8    
        100.8       100.8       100.8       100.8       100.8       100.9       100.9       100.9       100.9       100.9    
        100.9       100.9       100.9       100.9       101.0       101.0       101.0       101.0       101.0       101.0    
        101.0       101.0       101.0       101.0       101.0       101.0       101.0       101.0       101.1       101.1    
        101.1       101.1       101.1       101.1       101.1       101.1       101.1       101.1       101.1       101.1    
        101.1       101.1       101.1       101.1       101.1       101.1       101.1       101.1       101.1       101.1    
        101.0       101.0       101.0       101.0       101.0       101.0       101.0       101.0       101.0       101.0    
        100.9       100.9       100.9       100.9       100.9       100.9       100.8       100.8       100.8       100.8    
        100.8       100.8       100.7       100.7       100.7       100.7       100.7       100.7       100.7       100.6    
        100.6    
  97    100.5       100.5       100.5       100.5       100.5       100.5       100.6       100.6       100.6       100.6    
        100.6       100.6       100.6       100.7       100.7       100.7       100.7       100.7       100.7       100.8    
        100.8       100.8       100.8       100.8       100.8       100.8       100.8       100.9       100.9       100.9    
        100.9       100.9       100.9       100.9       100.9       100.9       100.9       101.0       101.0       101.0    
        101.0       101.0       101.0       101.0       101.0       101.0       101.0       101.0       101.0       101.0    
        101.0       101.0       101.0       101.0       101.0       101.1       101.1       101.1       101.1       101.1    
        101.1       101.1       101.1       101.0       101.0       101.0       101.0       101.0       101.0       101.0    
        101.0       101.0       101.0       101.0       101.0       101.0       101.0       101.0       100.9       100.9    
        100.9       100.9       100.9       100.9       100.9       100.8       100.8       100.8       100.8       100.8    
        100.8       100.7       100.7       100.7       100.7       100.7       100.7       100.6       100.6       100.6    
        100.6    
  98    100.5       100.5       100.5       100.5       100.5       100.5       100.5       100.6       100.6       100.6    
        100.6       100.6       100.6       100.7       100.7       100.7       100.7       100.7       100.7       100.7    
        100.8       100.8       100.8       100.8       100.8       100.8       100.8       100.8       100.9       100.9    
        100.9       100.9       100.9       100.9       100.9       100.9       100.9       100.9       100.9       101.0    
        101.0       101.0       101.0       101.0       101.0       101.0       101.0       101.0       101.0       101.0    
        101.0       101.0       101.0       101.0       101.0       101.0       101.0       101.0       101.0       101.0    
        101.0       101.0       101.0       101.0       101.0       101.0       101.0       101.0       101.0       101.0    
        101.0       101.0       101.0       101.0       101.0       101.0       100.9       100.9       100.9       100.9    
        100.9       100.9       100.9       100.9       100.8       100.8       100.8       100.8       100.8       100.8    
        100.7       100.7       100.7       100.7       100.7       100.7       100.6       100.6       100.6       100.6    
        100.6    
  99    100.5       100.5       100.5       100.5       100.5       100.5       100.5       100.6       100.6       100.6    
        100.6       100.6       100.6       100.6       100.7       100.7       100.7       100.7       100.7       100.7    
        100.7       100.8       100.8       100.8       100.8       100.8       100.8       100.8       100.8       100.9    
        100.9       100.9       100.9       100.9       100.9       100.9       100.9       100.9       100.9       100.9    
        100.9       101.0       101.0       101.0       101.0       101.0       101.0       101.0       101.0       101.0    
        101.0       101.0       101.0       101.0       101.0       101.0       101.0       101.0       101.0       101.0    
        101.0       101.0       101.0       101.0       101.0       101.0       101.0       101.0       101.0       101.0    
        101.0       101.0       101.0       101.0       101.0       100.9       100.9       100.9       100.9       100.9    
        100.9       100.9       100.9       100.8       100.8       100.8       100.8       100.8       100.8       100.7    
        100.7       100.7       100.7       100.7       100.7       100.7       100.6       100.6       100.6       100.6    
        100.6    
 100    100.5       100.5       100.5       100.5       100.5       100.5       100.5       100.5       100.6       100.6    
        100.6       100.6       100.6       100.6       100.7       100.7       100.7       100.7       100.7       100.7    
        100.7       100.7       100.8       100.8       100.8       100.8       100.8       100.8       100.8       100.8    
        100.9       100.9       100.9       100.9       100.9       100.9       100.9       100.9       100.9       100.9    
        100.9       100.9       100.9       101.0       101.0       101.0       101.0       101.0       101.0       101.0    
        101.0       101.0       101.0       101.0       101.0       101.0       101.0       101.0       101.0       101.0    
        101.0       101.0       101.0       101.0       101.0       101.0       101.0       101.0       101.0       101.0    
        101.0       101.0       101.0       101.0       100.9       100.9       100.9       100.9       100.9       100.9    
        100.9       100.9       100.9       100.8       100.8       100.8       100.8       100.8       100.8       100.7    
        100.7       100.7       100.7       100.7       100.7       100.6       100.6       100.6       100.6       100.6    
        100.6    
 101    100.5       100.5       100.5       100.5       100.5       100.5       100.5       100.5       100.6       100.6    
        100.6       100.6       100.6       100.6       100.6       100.7       100.7       100.7       100.7       100.7    
        100.7       100.7       100.8       100.8       100.8       100.8       100.8       100.8       100.8       100.8    
        100.8       100.9       100.9       100.9       100.9       100.9       100.9       100.9       100.9       100.9    
        100.9       100.9       100.9       100.9       101.0       101.0       101.0       101.0       101.0       101.0    
        101.0       101.0       101.0       101.0       101.0       101.0       101.0       101.0       101.0       101.0    
        101.0       101.0       101.0       101.0       101.0       101.0       101.0       101.0       101.0       101.0    
        101.0       101.0       101.0       100.9       100.9       100.9       100.9       100.9       100.9       100.9    
        100.9       100.9       100.8       100.8       100.8       100.8       100.8       100.8       100.8       100.7    
        100.7       100.7       100.7       100.7       100.7       100.6       100.6       100.6       100.6       100.6    
        100.6    

 HEAD WILL BE SAVED ON UNIT 1016 AT END OF TIME STEP    1, STRESS PERIOD    1


  VOLUME BUDGET FOR ENTIRE MODEL AT END OF TIME STEP    1, STRESS PERIOD   1
  ---------------------------------------------------------------------------------------------------

     CUMULATIVE VOLUME      L**3       RATES FOR THIS TIME STEP      L**3/T          PACKAGE NAME    
     ------------------                 ------------------------                     ----------------

           IN:                                      IN:
           ---                                      ---
              STO-SS =          33.1229                STO-SS =          33.1229     STORAGE                          
              STO-SY =           0.0000                STO-SY =           0.0000     STORAGE                          
                 WEL =           0.0000                   WEL =           0.0000     WEL_0                            
                RCHA =        1529.6052                  RCHA =        1529.6052     RCH                              
                 CHD =         228.7312                   CHD =         228.7312     CHD_0                            

            TOTAL IN =        1791.4593              TOTAL IN =        1791.4593

          OUT:                                     OUT:
          ----                                     ----
              STO-SS =          61.0830                STO-SS =          61.0830     STORAGE                          
              STO-SY =           0.0000                STO-SY =           0.0000     STORAGE                          
                 WEL =        1049.1801                   WEL =        1049.1801     WEL_0                            
                RCHA =           0.0000                  RCHA =           0.0000     RCH                              
                 CHD =         680.2601                   CHD =         680.2601     CHD_0                            

           TOTAL OUT =        1790.5232             TOTAL OUT =        1790.5232

            IN - OUT =           0.9361              IN - OUT =           0.9361

 PERCENT DISCREPANCY =           0.05     PERCENT DISCREPANCY =           0.05




         TIME SUMMARY AT END OF TIME STEP    1 IN STRESS PERIOD    1
                    SECONDS     MINUTES      HOURS       DAYS        YEARS
                    -----------------------------------------------------------
   TIME STEP LENGTH  86400.      1440.0      24.000      1.0000     2.73785E-03
 STRESS PERIOD TIME  86400.      1440.0      24.000      1.0000     2.73785E-03
         TOTAL TIME  86400.      1440.0      24.000      1.0000     2.73785E-03


end timestep

